*SPEF "ieee 1481-1999"
*DESIGN "twos_complement"
*DATE "18:37:18 Thursday April 24, 2025"
*VENDOR "The OpenROAD Project"
*PROGRAM "OpenROAD"
*VERSION "b16bda7e82721d10566ff7e2b68f1ff0be9f9e38"
*DESIGN_FLOW "NAME_SCOPE LOCAL" "PIN_CAP NONE"
*DIVIDER /
*DELIMITER :
*BUS_DELIMITER []
*T_UNIT 1 NS
*C_UNIT 1 PF
*R_UNIT 1 OHM
*L_UNIT 1 HENRY

*NAME_MAP
*3 a1[0]
*4 a1[1]
*5 a1[2]
*6 a1[3]
*7 a1[4]
*8 a1[5]
*9 a1[6]
*10 a1[7]
*11 b1[0]
*12 b1[1]
*13 b1[2]
*14 b1[3]
*15 b1[4]
*16 b1[5]
*17 b1[6]
*18 b1[7]
*19 _00_
*20 _01_
*21 _02_
*22 _03_
*23 _04_
*24 _05_
*25 _06_
*26 _07_
*27 _08_
*28 _09_
*29 net1
*30 net10
*31 net11
*32 net12
*33 net13
*34 net14
*35 net15
*36 net16
*37 net2
*38 net3
*39 net4
*40 net5
*41 net6
*42 net7
*43 net8
*44 net9
*45 FILLER_0_0_12
*46 FILLER_0_0_24
*47 FILLER_0_0_29
*48 FILLER_0_0_41
*49 FILLER_0_0_47
*50 FILLER_0_10_20
*51 FILLER_0_10_29
*52 FILLER_0_10_40
*53 FILLER_0_10_47
*54 FILLER_0_10_7
*55 FILLER_0_11_19
*56 FILLER_0_11_31
*57 FILLER_0_11_38
*58 FILLER_0_11_46
*59 FILLER_0_11_7
*60 FILLER_0_12_15
*61 FILLER_0_12_27
*62 FILLER_0_12_29
*63 FILLER_0_12_41
*64 FILLER_0_12_47
*65 FILLER_0_1_10
*66 FILLER_0_1_22
*67 FILLER_0_1_28
*68 FILLER_0_1_3
*69 FILLER_0_1_40
*70 FILLER_0_2_10
*71 FILLER_0_2_22
*72 FILLER_0_2_29
*73 FILLER_0_2_41
*74 FILLER_0_2_47
*75 FILLER_0_2_6
*76 FILLER_0_3_17
*77 FILLER_0_3_29
*78 FILLER_0_3_41
*79 FILLER_0_3_47
*80 FILLER_0_3_6
*81 FILLER_0_4_14
*82 FILLER_0_4_24
*83 FILLER_0_4_43
*84 FILLER_0_4_47
*85 FILLER_0_4_6
*86 FILLER_0_5_12
*87 FILLER_0_5_24
*88 FILLER_0_5_36
*89 FILLER_0_5_6
*90 FILLER_0_6_18
*91 FILLER_0_6_26
*92 FILLER_0_6_29
*93 FILLER_0_6_41
*94 FILLER_0_6_47
*95 FILLER_0_6_6
*96 FILLER_0_7_14
*97 FILLER_0_7_26
*98 FILLER_0_7_38
*99 FILLER_0_7_46
*100 FILLER_0_8_19
*101 FILLER_0_8_27
*102 FILLER_0_8_29
*103 FILLER_0_8_41
*104 FILLER_0_8_47
*105 FILLER_0_8_7
*106 FILLER_0_9_19
*107 FILLER_0_9_25
*108 FILLER_0_9_37
*109 FILLER_0_9_7
*110 PHY_EDGE_ROW_0_Left_13
*111 PHY_EDGE_ROW_0_Right_0
*112 PHY_EDGE_ROW_10_Left_23
*113 PHY_EDGE_ROW_10_Right_10
*114 PHY_EDGE_ROW_11_Left_24
*115 PHY_EDGE_ROW_11_Right_11
*116 PHY_EDGE_ROW_12_Left_25
*117 PHY_EDGE_ROW_12_Right_12
*118 PHY_EDGE_ROW_1_Left_14
*119 PHY_EDGE_ROW_1_Right_1
*120 PHY_EDGE_ROW_2_Left_15
*121 PHY_EDGE_ROW_2_Right_2
*122 PHY_EDGE_ROW_3_Left_16
*123 PHY_EDGE_ROW_3_Right_3
*124 PHY_EDGE_ROW_4_Left_17
*125 PHY_EDGE_ROW_4_Right_4
*126 PHY_EDGE_ROW_5_Left_18
*127 PHY_EDGE_ROW_5_Right_5
*128 PHY_EDGE_ROW_6_Left_19
*129 PHY_EDGE_ROW_6_Right_6
*130 PHY_EDGE_ROW_7_Left_20
*131 PHY_EDGE_ROW_7_Right_7
*132 PHY_EDGE_ROW_8_Left_21
*133 PHY_EDGE_ROW_8_Right_8
*134 PHY_EDGE_ROW_9_Left_22
*135 PHY_EDGE_ROW_9_Right_9
*136 TAP_TAPCELL_ROW_0_26
*137 TAP_TAPCELL_ROW_10_31
*138 TAP_TAPCELL_ROW_12_32
*139 TAP_TAPCELL_ROW_2_27
*140 TAP_TAPCELL_ROW_4_28
*141 TAP_TAPCELL_ROW_6_29
*142 TAP_TAPCELL_ROW_8_30
*143 _10_
*144 _11_
*145 _12_
*146 _13_
*147 _14_
*148 _15_
*149 _16_
*150 _17_
*151 _18_
*152 _19_
*153 _20_
*154 _21_
*155 _22_
*156 _23_
*157 _24_
*158 _25_
*159 _26_
*160 _27_
*161 input1
*162 input2
*163 input3
*164 input4
*165 input5
*166 input6
*167 input7
*168 input8
*169 output10
*170 output11
*171 output12
*172 output13
*173 output14
*174 output15
*175 output16
*176 output9

*PORTS
a1[0] I
a1[1] I
a1[2] I
a1[3] I
a1[4] I
a1[5] I
a1[6] I
a1[7] I
b1[0] O
b1[1] O
b1[2] O
b1[3] O
b1[4] O
b1[5] O
b1[6] O
b1[7] O

*D_NET *3 0.000792238
*CONN
*P a1[0] I
*I *161:A I *D sky130_fd_sc_hd__buf_1
*CAP
1 a1[0] 0.00031376
2 *161:A 0.00031376
3 *161:A b1[6] 0
4 *161:A b1[7] 3.40289e-05
5 *161:A *4:17 4.02128e-05
6 *161:A *39:14 9.04758e-05
*RES
1 a1[0] *161:A 49.1918 
*END

*D_NET *4 0.000796629
*CONN
*P a1[1] I
*I *162:A I *D sky130_fd_sc_hd__buf_1
*CAP
1 a1[1] 0.000357402
2 *162:A 0
3 *4:17 0.000357402
4 *4:17 *5:17 4.16123e-05
5 *4:17 *21:39 0
6 *4:17 *39:14 0
7 *161:A *4:17 4.02128e-05
*RES
1 a1[1] *4:17 28.567 
2 *4:17 *162:A 23 
*END

*D_NET *5 0.000757054
*CONN
*P a1[2] I
*I *163:A I *D sky130_fd_sc_hd__buf_1
*CAP
1 a1[2] 0.000339328
2 *163:A 0
3 *5:17 0.000339328
4 *5:17 *6:13 3.67849e-05
5 *5:17 *21:39 0
6 *4:17 *5:17 4.16123e-05
*RES
1 a1[2] *5:17 28.2148 
2 *5:17 *163:A 23 
*END

*D_NET *6 0.000747146
*CONN
*P a1[3] I
*I *164:A I *D sky130_fd_sc_hd__clkbuf_1
*CAP
1 a1[3] 0.000335074
2 *164:A 0
3 *6:13 0.000335074
4 *6:13 *7:17 4.02128e-05
5 *6:13 *21:39 0
6 *5:17 *6:13 3.67849e-05
*RES
1 a1[3] *6:13 28.6417 
2 *6:13 *164:A 23 
*END

*D_NET *7 0.000755822
*CONN
*P a1[4] I
*I *165:A I *D sky130_fd_sc_hd__buf_1
*CAP
1 a1[4] 0.000341696
2 *165:A 0
3 *7:17 0.000341696
4 *7:17 *166:A 3.22181e-05
5 *7:17 *21:39 0
6 *6:13 *7:17 4.02128e-05
*RES
1 a1[4] *7:17 28.2148 
2 *7:17 *165:A 23 
*END

*D_NET *8 0.000899008
*CONN
*P a1[5] I
*I *166:A I *D sky130_fd_sc_hd__buf_1
*CAP
1 a1[5] 0.000201668
2 *166:A 0.000201668
3 *166:A *9:15 0.000269806
4 *166:A *10:15 0.000193649
5 *7:17 *166:A 3.22181e-05
*RES
1 a1[5] *166:A 49.8062 
*END

*D_NET *9 0.00122588
*CONN
*P a1[6] I
*I *167:A I *D sky130_fd_sc_hd__buf_1
*CAP
1 a1[6] 0.000305068
2 *167:A 0
3 *9:15 0.000305068
4 *9:15 *10:15 0.000289236
5 *9:15 *41:6 5.67058e-05
6 *166:A *9:15 0.000269806
*RES
1 a1[6] *9:15 29.8639 
2 *9:15 *167:A 23 
*END

*D_NET *10 0.00164605
*CONN
*P a1[7] I
*I *168:A I *D sky130_fd_sc_hd__buf_1
*CAP
1 a1[7] 0.000527568
2 *168:A 0
3 *10:15 0.000527568
4 *10:15 *41:6 5.00782e-05
5 *10:15 *42:6 5.79559e-05
6 *166:A *10:15 0.000193649
7 *9:15 *10:15 0.000289236
*RES
1 a1[7] *10:15 34.424 
2 *10:15 *168:A 23 
*END

*D_NET *11 0.0015894
*CONN
*P b1[0] O
*I *176:X O *D sky130_fd_sc_hd__buf_2
*CAP
1 b1[0] 0.000165
2 *176:X 0.000453374
3 *11:10 0.000618375
4 b1[0] b1[1] 5.29942e-05
5 *11:10 *12:10 0.000274703
6 *11:10 *30:16 2.49531e-05
*RES
1 *176:X *11:10 45.3432 
2 *11:10 b1[0] 8.672 
*END

*D_NET *12 0.000965749
*CONN
*P b1[1] O
*I *169:X O *D sky130_fd_sc_hd__buf_2
*CAP
1 b1[1] 5.76896e-05
2 *169:X 0.00017226
3 *12:10 0.00022995
4 b1[1] b1[2] 4.02128e-05
5 b1[1] b1[3] 0
6 *12:10 *13:10 8.38096e-05
7 *12:10 *31:14 5.41288e-05
8 b1[0] b1[1] 5.29942e-05
9 *11:10 *12:10 0.000274703
*RES
1 *169:X *12:10 43.2304 
2 *12:10 b1[1] 8.32853 
*END

*D_NET *13 0.000848687
*CONN
*P b1[2] O
*I *170:X O *D sky130_fd_sc_hd__buf_2
*CAP
1 b1[2] 8.6708e-05
2 *170:X 0.000257232
3 *13:10 0.00034394
4 b1[2] b1[3] 3.67849e-05
5 b1[1] b1[2] 4.02128e-05
6 *12:10 *13:10 8.38096e-05
*RES
1 *170:X *13:10 42.5054 
2 *13:10 b1[2] 8.4816 
*END

*D_NET *14 0.000797063
*CONN
*P b1[3] O
*I *171:X O *D sky130_fd_sc_hd__buf_2
*CAP
1 b1[3] 0.000320176
2 *171:X 0.000320176
3 b1[3] b1[4] 4.35051e-05
4 b1[3] b1[5] 0
5 b1[3] *32:12 7.64198e-05
6 b1[1] b1[3] 0
7 b1[2] b1[3] 3.67849e-05
*RES
1 *171:X b1[3] 48.9255 
*END

*D_NET *15 0.000827614
*CONN
*P b1[4] O
*I *172:X O *D sky130_fd_sc_hd__buf_2
*CAP
1 b1[4] 7.98519e-05
2 *172:X 0.00029381
3 *15:10 0.000373662
4 b1[4] b1[5] 3.67849e-05
5 *15:10 *32:12 0
6 b1[3] b1[4] 4.35051e-05
*RES
1 *172:X *15:10 42.5054 
2 *15:10 b1[4] 8.4816 
*END

*D_NET *16 0.000727332
*CONN
*P b1[5] O
*I *173:X O *D sky130_fd_sc_hd__buf_2
*CAP
1 b1[5] 0.000267169
2 *173:X 0.000267169
3 b1[5] b1[6] 9.45464e-05
4 b1[5] *32:12 6.16635e-05
5 b1[3] b1[5] 0
6 b1[4] b1[5] 3.67849e-05
*RES
1 *173:X b1[5] 48.5734 
*END

*D_NET *17 0.000840634
*CONN
*P b1[6] O
*I *174:X O *D sky130_fd_sc_hd__buf_2
*CAP
1 b1[6] 0.000352938
2 *174:X 0.000352938
3 b1[6] b1[7] 4.02128e-05
4 b1[6] *32:12 0
5 b1[5] b1[6] 9.45464e-05
6 *161:A b1[6] 0
*RES
1 *174:X b1[6] 49.8901 
*END

*D_NET *18 0.000849509
*CONN
*P b1[7] O
*I *175:X O *D sky130_fd_sc_hd__buf_2
*CAP
1 b1[7] 9.38234e-05
2 *175:X 0.00029381
3 *18:10 0.000387634
4 *18:10 *39:14 0
5 b1[6] b1[7] 4.02128e-05
6 *161:A b1[7] 3.40289e-05
*RES
1 *175:X *18:10 42.5054 
2 *18:10 b1[7] 8.4816 
*END

*D_NET *19 0.00145743
*CONN
*I *159:A I *D sky130_fd_sc_hd__nor2_1
*I *144:B I *D sky130_fd_sc_hd__xnor2_1
*I *143:Y O *D sky130_fd_sc_hd__nor2_1
*CAP
1 *159:A 0.000146443
2 *144:B 0
3 *143:Y 0.000270694
4 *19:12 0.000146443
5 *19:10 0.000270694
6 *159:A *144:A 0
7 *159:A *146:B 0.000202364
8 *159:A *146:C 0.000142667
9 *159:A *30:8 2.32004e-05
10 *159:A *38:23 2.93845e-05
11 *19:10 *143:A 0
12 *19:10 *143:B 0.000103405
13 *19:10 *29:16 0.000105165
14 *19:10 *40:25 1.69668e-05
15 *19:10 *43:14 0
*RES
1 *143:Y *19:10 43.7171 
2 *19:10 *19:12 15 
3 *19:12 *144:B 23 
4 *19:12 *159:A 26.9771 
*END

*D_NET *20 0.00163632
*CONN
*I *147:A_N I *D sky130_fd_sc_hd__and2b_1
*I *145:X O *D sky130_fd_sc_hd__o31a_1
*CAP
1 *147:A_N 5.3874e-05
2 *145:X 0.000412141
3 *20:10 0.000466015
4 *147:A_N *37:34 3.22051e-05
5 *147:A_N *37:47 3.22467e-05
6 *20:10 *145:A1 0
7 *20:10 *145:A2 0.000315096
8 *20:10 *30:16 0.000324742
*RES
1 *145:X *20:10 45.8507 
2 *20:10 *147:A_N 39.0979 
*END

*D_NET *21 0.00994084
*CONN
*I *154:A3 I *D sky130_fd_sc_hd__o31ai_1
*I *149:B I *D sky130_fd_sc_hd__nor2_1
*I *147:B I *D sky130_fd_sc_hd__and2b_1
*I *150:B I *D sky130_fd_sc_hd__and2_1
*I *153:D I *D sky130_fd_sc_hd__or4_1
*I *146:X O *D sky130_fd_sc_hd__or4_2
*CAP
1 *154:A3 0.000306057
2 *149:B 0.000124235
3 *147:B 0
4 *150:B 0
5 *153:D 0.000345178
6 *146:X 0
7 *21:53 0.000878699
8 *21:39 0.000876646
9 *21:25 0.00130005
10 *21:23 0.00115986
11 *21:6 0.000633228
12 *149:B *23:6 0.000224504
13 *149:B *34:14 0.000227208
14 *153:D *153:A 5.67058e-05
15 *153:D *25:8 5.50106e-05
16 *153:D *25:14 0
17 *153:D *37:47 5.03449e-05
18 *153:D *41:10 0
19 *153:D *42:23 0.000347985
20 *154:A3 *23:12 6.25829e-05
21 *154:A3 *41:27 0.000178878
22 *154:A3 *44:14 0
23 *21:23 *37:47 0.000312402
24 *21:23 *42:23 5.56203e-05
25 *21:25 *28:10 9.41704e-05
26 *21:25 *37:8 5.3304e-05
27 *21:25 *37:34 0.000176497
28 *21:25 *37:47 0.000594244
29 *21:39 *22:8 0
30 *21:39 *32:12 0.000111045
31 *21:39 *37:8 0.000253213
32 *21:39 *39:14 0.00030233
33 *21:39 *40:8 0.000141888
34 *21:39 *40:17 9.84851e-05
35 *21:39 *43:14 0
36 *21:53 *23:12 0.000920475
37 *21:53 *34:14 0
38 *4:17 *21:39 0
39 *5:17 *21:39 0
40 *6:13 *21:39 0
41 *7:17 *21:39 0
*RES
1 *146:X *21:6 38 
2 *21:6 *153:D 47.57 
3 *21:6 *21:23 20.51 
4 *21:23 *21:25 9.19714 
5 *21:25 *21:39 47.4829 
6 *21:39 *150:B 23 
7 *21:25 *147:B 23 
8 *21:23 *21:53 27.1179 
9 *21:53 *149:B 42.4329 
10 *21:53 *154:A3 43.8207 
*END

*D_NET *22 0.00148173
*CONN
*I *148:A I *D sky130_fd_sc_hd__clkbuf_1
*I *147:X O *D sky130_fd_sc_hd__and2b_1
*CAP
1 *148:A 0.000114554
2 *147:X 0.000334562
3 *22:8 0.000449117
4 *22:8 *32:12 0
5 *22:8 *38:16 0
6 *22:8 *43:14 0.000583495
7 *21:39 *22:8 0
*RES
1 *147:X *22:8 45.8921 
2 *22:8 *148:A 40.0507 
*END

*D_NET *23 0.00510593
*CONN
*I *151:A I *D sky130_fd_sc_hd__nor2_1
*I *152:B I *D sky130_fd_sc_hd__xnor2_1
*I *149:Y O *D sky130_fd_sc_hd__nor2_1
*CAP
1 *151:A 0
2 *152:B 0
3 *149:Y 0.000361798
4 *23:25 0.00054426
5 *23:12 0.000351097
6 *23:6 0.00125715
7 *23:6 *34:14 1.57571e-05
8 *23:12 *34:14 0
9 *23:12 *41:27 0.00113244
10 *23:25 *156:A 0.000168985
11 *23:25 *24:10 6.68793e-05
12 *149:B *23:6 0.000224504
13 *154:A3 *23:12 6.25829e-05
14 *21:53 *23:12 0.000920475
*RES
1 *149:Y *23:6 28.3857 
2 *23:6 *23:12 44.935 
3 *23:12 *152:B 23 
4 *23:6 *23:25 37.7679 
5 *23:25 *151:A 23 
*END

*D_NET *24 0.00675259
*CONN
*I *151:B I *D sky130_fd_sc_hd__nor2_1
*I *150:X O *D sky130_fd_sc_hd__and2_1
*CAP
1 *151:B 0
2 *150:X 0.000767703
3 *24:10 0.000888734
4 *24:6 0.00165644
5 *24:6 *153:A 0.0006016
6 *24:6 *40:17 0.00062756
7 *24:10 *35:8 0.000169683
8 *24:10 *42:10 3.70187e-05
9 *24:10 *42:23 0.00193698
10 *23:25 *24:10 6.68793e-05
*RES
1 *150:X *24:6 39.82 
2 *24:6 *24:10 40.8514 
3 *24:10 *151:B 38 
*END

*D_NET *25 0.00580888
*CONN
*I *155:A I *D sky130_fd_sc_hd__and2_1
*I *157:B I *D sky130_fd_sc_hd__xor2_1
*I *153:X O *D sky130_fd_sc_hd__or4_1
*CAP
1 *155:A 0
2 *157:B 0.000372526
3 *153:X 0.000370966
4 *25:14 0.00136924
5 *25:8 0.00136768
6 *157:B *33:8 0.000407497
7 *25:8 *153:A 0.000189108
8 *25:14 *26:10 3.70094e-05
9 *25:14 *27:8 4.48568e-05
10 *25:14 *33:8 2.02872e-05
11 *25:14 *37:47 6.70914e-05
12 *25:14 *41:10 0.000182471
13 *25:14 *41:27 0.00132513
14 *25:14 *42:23 0
15 *153:D *25:8 5.50106e-05
16 *153:D *25:14 0
*RES
1 *153:X *25:8 43.3857 
2 *25:8 *25:14 40.4164 
3 *25:14 *157:B 31.2443 
4 *25:14 *155:A 23 
*END

*D_NET *26 0.000411937
*CONN
*I *155:B I *D sky130_fd_sc_hd__and2_1
*I *154:Y O *D sky130_fd_sc_hd__o31ai_1
*CAP
1 *155:B 0
2 *154:Y 0.000153973
3 *26:10 0.000153973
4 *26:10 *41:27 6.32688e-05
5 *26:10 *42:23 3.7122e-06
6 *25:14 *26:10 3.70094e-05
*RES
1 *154:Y *26:10 40.8793 
2 *26:10 *155:B 38 
*END

*D_NET *27 0.000781069
*CONN
*I *156:A I *D sky130_fd_sc_hd__clkbuf_1
*I *155:X O *D sky130_fd_sc_hd__and2_1
*CAP
1 *156:A 0.000185896
2 *155:X 9.77177e-05
3 *27:8 0.000283614
4 *27:8 *42:23 0
5 *23:25 *156:A 0.000168985
6 *25:14 *27:8 4.48568e-05
*RES
1 *155:X *27:8 39.9057 
2 *27:8 *156:A 41.9564 
*END

*D_NET *28 0.00067288
*CONN
*I *159:B I *D sky130_fd_sc_hd__nor2_1
*I *158:X O *D sky130_fd_sc_hd__and2_1
*CAP
1 *159:B 0
2 *158:X 0.000209264
3 *28:10 0.000209264
4 *28:10 *152:A 0
5 *28:10 *41:27 0
6 *28:10 *44:14 0.000160182
7 *21:25 *28:10 9.41704e-05
*RES
1 *158:X *28:10 41.3557 
2 *28:10 *159:B 38 
*END

*D_NET *29 0.00746334
*CONN
*I *145:A2 I *D sky130_fd_sc_hd__o31a_1
*I *158:B I *D sky130_fd_sc_hd__and2_1
*I *146:B I *D sky130_fd_sc_hd__or4_2
*I *160:A I *D sky130_fd_sc_hd__clkbuf_1
*I *143:B I *D sky130_fd_sc_hd__nor2_1
*I *161:X O *D sky130_fd_sc_hd__buf_1
*CAP
1 *145:A2 0.000351789
2 *158:B 3.80122e-05
3 *146:B 0.000446895
4 *160:A 0
5 *143:B 0.000145285
6 *161:X 0.000746718
7 *29:31 0.000426777
8 *29:16 0.000705375
9 *29:12 0.000669331
10 *29:10 0.000177754
11 *29:8 0.00114913
12 *145:A2 *145:A1 9.9002e-05
13 *145:A2 *30:16 0.000240695
14 *145:A2 *40:25 0.000250839
15 *146:B *146:C 0.000115464
16 *146:B *30:8 0.000135037
17 *158:B *37:47 5.3304e-05
18 *29:10 *30:16 0.000129504
19 *29:10 *40:25 0.000139647
20 *29:12 *143:A 0
21 *29:12 *30:16 0.000161121
22 *29:12 *40:25 0.000185755
23 *29:16 *143:A 0
24 *29:16 *40:25 0.000241355
25 *29:31 *40:25 0
26 *29:31 *41:10 0
27 *29:31 *44:14 0.000128524
28 *159:A *146:B 0.000202364
29 *19:10 *143:B 0.000103405
30 *19:10 *29:16 0.000105165
31 *20:10 *145:A2 0.000315096
*RES
1 *161:X *29:8 46.2443 
2 *29:8 *29:10 1.90571 
3 *29:10 *29:12 2.61 
4 *29:12 *29:16 18.3143 
5 *29:16 *143:B 26.0036 
6 *29:16 *29:31 38.3064 
7 *29:31 *160:A 23 
8 *29:12 *146:B 45.4571 
9 *29:10 *158:B 38.6214 
10 *29:8 *145:A2 47.1764 
*END

*D_NET *30 0.0047104
*CONN
*I *169:A I *D sky130_fd_sc_hd__buf_2
*I *159:Y O *D sky130_fd_sc_hd__nor2_1
*CAP
1 *169:A 0
2 *159:Y 0.000162616
3 *30:16 0.00110343
4 *30:8 0.00126605
5 *30:16 *143:A 0
6 *30:16 *145:A1 0
7 *30:16 *154:A1 0.000425799
8 *30:16 *40:25 0.000341652
9 *30:16 *43:14 0
10 *30:16 *44:14 0.000371598
11 *145:A2 *30:16 0.000240695
12 *146:B *30:8 0.000135037
13 *159:A *30:8 2.32004e-05
14 *11:10 *30:16 2.49531e-05
15 *20:10 *30:16 0.000324742
16 *29:10 *30:16 0.000129504
17 *29:12 *30:16 0.000161121
*RES
1 *159:Y *30:8 40.0507 
2 *30:8 *30:16 42.1564 
3 *30:16 *169:A 23 
*END

*D_NET *31 0.00406062
*CONN
*I *170:A I *D sky130_fd_sc_hd__buf_2
*I *144:Y O *D sky130_fd_sc_hd__xnor2_1
*CAP
1 *170:A 0
2 *144:Y 0.000255203
3 *31:14 0.00100953
4 *31:8 0.00126473
5 *31:8 *38:23 0.000136891
6 *31:14 *32:12 0.000129942
7 *31:14 *36:10 0.000645691
8 *31:14 *38:16 0.000564507
9 *12:10 *31:14 5.41288e-05
*RES
1 *144:Y *31:8 42.4329 
2 *31:8 *31:14 38.0757 
3 *31:14 *170:A 23 
*END

*D_NET *32 0.00425873
*CONN
*I *171:A I *D sky130_fd_sc_hd__buf_2
*I *148:X O *D sky130_fd_sc_hd__clkbuf_1
*CAP
1 *171:A 0
2 *148:X 4.96719e-05
3 *32:12 0.000834224
4 *32:8 0.000883896
5 *32:12 *36:10 0.000647922
6 *32:12 *38:16 0.000647903
7 *32:12 *39:14 0.000775176
8 *32:12 *39:31 4.08641e-05
9 b1[3] *32:12 7.64198e-05
10 b1[5] *32:12 6.16635e-05
11 b1[6] *32:12 0
12 *15:10 *32:12 0
13 *21:39 *32:12 0.000111045
14 *22:8 *32:12 0
15 *31:14 *32:12 0.000129942
*RES
1 *148:X *32:8 38.6214 
2 *32:8 *32:12 39.795 
3 *32:12 *171:A 23 
*END

*D_NET *33 0.00291986
*CONN
*I *172:A I *D sky130_fd_sc_hd__buf_2
*I *151:Y O *D sky130_fd_sc_hd__nor2_1
*CAP
1 *172:A 0
2 *151:Y 0.00110007
3 *33:8 0.00110007
4 *33:8 *36:10 0.000148393
5 *33:8 *43:14 0.000143543
6 *157:B *33:8 0.000407497
7 *25:14 *33:8 2.02872e-05
*RES
1 *151:Y *33:8 42.2229 
2 *33:8 *172:A 23 
*END

*D_NET *34 0.00307242
*CONN
*I *173:A I *D sky130_fd_sc_hd__buf_2
*I *152:Y O *D sky130_fd_sc_hd__xnor2_1
*CAP
1 *173:A 0
2 *152:Y 0
3 *34:14 0.00141473
4 *34:6 0.00141473
5 *34:14 *44:14 0
6 *149:B *34:14 0.000227208
7 *21:53 *34:14 0
8 *23:6 *34:14 1.57571e-05
9 *23:12 *34:14 0
*RES
1 *152:Y *34:6 38 
2 *34:6 *34:14 40.1264 
3 *34:14 *173:A 23 
*END

*D_NET *35 0.00279863
*CONN
*I *174:A I *D sky130_fd_sc_hd__buf_2
*I *156:X O *D sky130_fd_sc_hd__clkbuf_1
*CAP
1 *174:A 0
2 *156:X 8.82946e-05
3 *35:12 0.00122618
4 *35:8 0.00131448
5 *24:10 *35:8 0.000169683
*RES
1 *156:X *35:8 40.2579 
2 *35:8 *35:12 33.7257 
3 *35:12 *174:A 23 
*END

*D_NET *36 0.00221973
*CONN
*I *175:A I *D sky130_fd_sc_hd__buf_2
*I *157:X O *D sky130_fd_sc_hd__xor2_1
*CAP
1 *175:A 3.38673e-05
2 *157:X 0.000327489
3 *36:10 0.000361356
4 *175:A *39:14 5.50106e-05
5 *31:14 *36:10 0.000645691
6 *32:12 *36:10 0.000647922
7 *33:8 *36:10 0.000148393
*RES
1 *157:X *36:10 49.6 
2 *36:10 *175:A 38.6214 
*END

*D_NET *37 0.00554386
*CONN
*I *146:A I *D sky130_fd_sc_hd__or4_2
*I *158:A I *D sky130_fd_sc_hd__and2_1
*I *145:A1 I *D sky130_fd_sc_hd__o31a_1
*I *143:A I *D sky130_fd_sc_hd__nor2_1
*I *162:X O *D sky130_fd_sc_hd__buf_1
*CAP
1 *146:A 0
2 *158:A 0
3 *145:A1 0.000349354
4 *143:A 0.000287702
5 *162:X 0.000271178
6 *37:47 0.000518169
7 *37:34 0.000578806
8 *37:10 0.000637056
9 *37:8 0.000331814
10 *143:A *43:14 0.000398664
11 *145:A1 *43:14 0.000447263
12 *145:A2 *145:A1 9.9002e-05
13 *147:A_N *37:34 3.22051e-05
14 *147:A_N *37:47 3.22467e-05
15 *153:D *37:47 5.03449e-05
16 *158:B *37:47 5.3304e-05
17 *19:10 *143:A 0
18 *20:10 *145:A1 0
19 *21:23 *37:47 0.000312402
20 *21:25 *37:8 5.3304e-05
21 *21:25 *37:34 0.000176497
22 *21:25 *37:47 0.000594244
23 *21:39 *37:8 0.000253213
24 *25:14 *37:47 6.70914e-05
25 *29:12 *143:A 0
26 *29:16 *143:A 0
27 *30:16 *143:A 0
28 *30:16 *145:A1 0
*RES
1 *162:X *37:8 28.4064 
2 *37:8 *37:10 15 
3 *37:10 *143:A 44.0486 
4 *37:10 *145:A1 46.1821 
5 *37:8 *37:34 2.05071 
6 *37:34 *158:A 23 
7 *37:34 *37:47 42.6357 
8 *37:47 *146:A 23 
*END

*D_NET *38 0.00471704
*CONN
*I *146:C I *D sky130_fd_sc_hd__or4_2
*I *144:A I *D sky130_fd_sc_hd__xnor2_1
*I *145:A3 I *D sky130_fd_sc_hd__o31a_1
*I *163:X O *D sky130_fd_sc_hd__buf_1
*CAP
1 *146:C 0.000280501
2 *144:A 2.34823e-05
3 *145:A3 0
4 *163:X 0.000114632
5 *38:23 0.000524735
6 *38:16 0.000284481
7 *38:8 0.000619865
8 *146:C *39:31 0.000607249
9 *38:16 *39:14 5.3304e-05
10 *38:23 *39:31 0.000571968
11 *146:B *146:C 0.000115464
12 *159:A *144:A 0
13 *159:A *146:C 0.000142667
14 *159:A *38:23 2.93845e-05
15 *22:8 *38:16 0
16 *31:8 *38:23 0.000136891
17 *31:14 *38:16 0.000564507
18 *32:12 *38:16 0.000647903
*RES
1 *163:X *38:8 24.595 
2 *38:8 *38:16 39.6943 
3 *38:16 *145:A3 23 
4 *38:8 *38:23 6.815 
5 *38:23 *144:A 23.4971 
6 *38:23 *146:C 31.8864 
*END

*D_NET *39 0.00568931
*CONN
*I *146:D I *D sky130_fd_sc_hd__or4_2
*I *145:B1 I *D sky130_fd_sc_hd__o31a_1
*I *164:X O *D sky130_fd_sc_hd__clkbuf_1
*CAP
1 *146:D 0
2 *145:B1 0
3 *164:X 0
4 *39:31 0.00111367
5 *39:14 0.000482799
6 *39:4 0.00159647
7 *146:C *39:31 0.000607249
8 *161:A *39:14 9.04758e-05
9 *175:A *39:14 5.50106e-05
10 *4:17 *39:14 0
11 *18:10 *39:14 0
12 *21:39 *39:14 0.00030233
13 *32:12 *39:14 0.000775176
14 *32:12 *39:31 4.08641e-05
15 *38:16 *39:14 5.3304e-05
16 *38:23 *39:31 0.000571968
*RES
1 *164:X *39:4 23 
2 *39:4 *39:14 42.4286 
3 *39:14 *145:B1 23 
4 *39:4 *39:31 46.7579 
5 *39:31 *146:D 23 
*END

*D_NET *40 0.00893827
*CONN
*I *153:A I *D sky130_fd_sc_hd__or4_1
*I *154:A1 I *D sky130_fd_sc_hd__o31ai_1
*I *149:A I *D sky130_fd_sc_hd__nor2_1
*I *150:A I *D sky130_fd_sc_hd__and2_1
*I *165:X O *D sky130_fd_sc_hd__buf_1
*CAP
1 *153:A 0.00035482
2 *154:A1 0.000430999
3 *149:A 0
4 *150:A 0
5 *165:X 0.000104209
6 *40:25 0.00113452
7 *40:17 0.00137597
8 *40:10 0.000317631
9 *40:8 0.000104209
10 *153:A *44:8 2.30292e-05
11 *154:A1 *44:14 0.000218696
12 *40:8 *43:14 0
13 *40:25 *41:10 0
14 *40:25 *43:14 0
15 *40:25 *44:14 0.00155683
16 *145:A2 *40:25 0.000250839
17 *153:D *153:A 5.67058e-05
18 *19:10 *40:25 1.69668e-05
19 *21:39 *40:8 0.000141888
20 *21:39 *40:17 9.84851e-05
21 *24:6 *153:A 0.0006016
22 *24:6 *40:17 0.00062756
23 *25:8 *153:A 0.000189108
24 *29:10 *40:25 0.000139647
25 *29:12 *40:25 0.000185755
26 *29:16 *40:25 0.000241355
27 *29:31 *40:25 0
28 *30:16 *154:A1 0.000425799
29 *30:16 *40:25 0.000341652
*RES
1 *165:X *40:8 40.2579 
2 *40:8 *40:10 15 
3 *40:10 *150:A 23 
4 *40:10 *40:17 8.72071 
5 *40:17 *40:25 38.8007 
6 *40:25 *149:A 38 
7 *40:25 *154:A1 48.6886 
8 *40:17 *153:A 34.2686 
*END

*D_NET *41 0.00841266
*CONN
*I *153:B I *D sky130_fd_sc_hd__or4_1
*I *154:A2 I *D sky130_fd_sc_hd__o31ai_1
*I *152:A I *D sky130_fd_sc_hd__xnor2_1
*I *166:X O *D sky130_fd_sc_hd__buf_1
*CAP
1 *153:B 0
2 *154:A2 0
3 *152:A 6.65444e-06
4 *166:X 0.000884706
5 *41:40 0.000363168
6 *41:27 0.00063194
7 *41:10 0.00120294
8 *41:6 0.00181222
9 *152:A *44:14 0
10 *41:6 *42:6 0.000291093
11 *41:10 *42:10 0
12 *41:10 *42:23 0
13 *41:10 *44:14 0
14 *41:27 *42:23 0
15 *41:40 *42:6 0.000116886
16 *41:40 *42:10 0.000114092
17 *153:D *41:10 0
18 *154:A3 *41:27 0.000178878
19 *9:15 *41:6 5.67058e-05
20 *10:15 *41:6 5.00782e-05
21 *23:12 *41:27 0.00113244
22 *25:14 *41:10 0.000182471
23 *25:14 *41:27 0.00132513
24 *26:10 *41:27 6.32688e-05
25 *28:10 *152:A 0
26 *28:10 *41:27 0
27 *29:31 *41:10 0
28 *40:25 *41:10 0
*RES
1 *166:X *41:6 36.485 
2 *41:6 *41:10 26.9418 
3 *41:10 *152:A 38.3211 
4 *41:10 *41:27 36.9986 
5 *41:27 *154:A2 23 
6 *41:6 *41:40 37.395 
7 *41:40 *153:B 23 
*END

*D_NET *42 0.00717941
*CONN
*I *154:B1 I *D sky130_fd_sc_hd__o31ai_1
*I *153:C I *D sky130_fd_sc_hd__or4_1
*I *167:X O *D sky130_fd_sc_hd__buf_1
*CAP
1 *154:B1 0
2 *153:C 0
3 *167:X 0.000780127
4 *42:23 0.0011542
5 *42:10 0.00125581
6 *42:6 0.000881738
7 *42:6 *43:8 0.000146195
8 *153:D *42:23 0.000347985
9 *10:15 *42:6 5.79559e-05
10 *21:23 *42:23 5.56203e-05
11 *24:10 *42:10 3.70187e-05
12 *24:10 *42:23 0.00193698
13 *25:14 *42:23 0
14 *26:10 *42:23 3.7122e-06
15 *27:8 *42:23 0
16 *41:6 *42:6 0.000291093
17 *41:10 *42:10 0
18 *41:10 *42:23 0
19 *41:27 *42:23 0
20 *41:40 *42:6 0.000116886
21 *41:40 *42:10 0.000114092
*RES
1 *167:X *42:6 39.82 
2 *42:6 *42:10 17.2579 
3 *42:10 *153:C 38 
4 *42:10 *42:23 46.6721 
5 *42:23 *154:B1 23 
*END

*D_NET *43 0.00452523
*CONN
*I *157:A I *D sky130_fd_sc_hd__xor2_1
*I *168:X O *D sky130_fd_sc_hd__buf_1
*CAP
1 *157:A 0
2 *168:X 9.63883e-05
3 *43:14 0.00130665
4 *43:8 0.00140303
5 *143:A *43:14 0.000398664
6 *145:A1 *43:14 0.000447263
7 *19:10 *43:14 0
8 *21:39 *43:14 0
9 *22:8 *43:14 0.000583495
10 *30:16 *43:14 0
11 *33:8 *43:14 0.000143543
12 *40:8 *43:14 0
13 *40:25 *43:14 0
14 *42:6 *43:8 0.000146195
*RES
1 *168:X *43:8 39.5743 
2 *43:8 *43:14 43.8343 
3 *43:14 *157:A 23 
*END

*D_NET *44 0.00525109
*CONN
*I *176:A I *D sky130_fd_sc_hd__buf_2
*I *160:X O *D sky130_fd_sc_hd__clkbuf_1
*CAP
1 *176:A 0
2 *160:X 4.11547e-05
3 *44:14 0.00135496
4 *44:8 0.00139612
5 *152:A *44:14 0
6 *153:A *44:8 2.30292e-05
7 *154:A1 *44:14 0.000218696
8 *154:A3 *44:14 0
9 *28:10 *44:14 0.000160182
10 *29:31 *44:14 0.000128524
11 *30:16 *44:14 0.000371598
12 *34:14 *44:14 0
13 *40:25 *44:14 0.00155683
14 *41:10 *44:14 0
*RES
1 *160:X *44:8 38.6214 
2 *44:8 *44:14 49.9864 
3 *44:14 *176:A 23 
*END
