*SPEF "ieee 1481-1999"
*DESIGN "twos_complement"
*DATE "18:37:21 Thursday April 24, 2025"
*VENDOR "The OpenROAD Project"
*PROGRAM "OpenROAD"
*VERSION "b16bda7e82721d10566ff7e2b68f1ff0be9f9e38"
*DESIGN_FLOW "NAME_SCOPE LOCAL" "PIN_CAP NONE"
*DIVIDER /
*DELIMITER :
*BUS_DELIMITER []
*T_UNIT 1 NS
*C_UNIT 1 PF
*R_UNIT 1 OHM
*L_UNIT 1 HENRY

*NAME_MAP
*3 a1[0]
*4 a1[1]
*5 a1[2]
*6 a1[3]
*7 a1[4]
*8 a1[5]
*9 a1[6]
*10 a1[7]
*11 b1[0]
*12 b1[1]
*13 b1[2]
*14 b1[3]
*15 b1[4]
*16 b1[5]
*17 b1[6]
*18 b1[7]
*19 _00_
*20 _01_
*21 _02_
*22 _03_
*23 _04_
*24 _05_
*25 _06_
*26 _07_
*27 _08_
*28 _09_
*29 net1
*30 net10
*31 net11
*32 net12
*33 net13
*34 net14
*35 net15
*36 net16
*37 net2
*38 net3
*39 net4
*40 net5
*41 net6
*42 net7
*43 net8
*44 net9
*45 FILLER_0_0_12
*46 FILLER_0_0_24
*47 FILLER_0_0_29
*48 FILLER_0_0_41
*49 FILLER_0_0_47
*50 FILLER_0_10_20
*51 FILLER_0_10_29
*52 FILLER_0_10_40
*53 FILLER_0_10_47
*54 FILLER_0_10_7
*55 FILLER_0_11_19
*56 FILLER_0_11_31
*57 FILLER_0_11_38
*58 FILLER_0_11_46
*59 FILLER_0_11_7
*60 FILLER_0_12_15
*61 FILLER_0_12_27
*62 FILLER_0_12_29
*63 FILLER_0_12_41
*64 FILLER_0_12_47
*65 FILLER_0_1_10
*66 FILLER_0_1_22
*67 FILLER_0_1_28
*68 FILLER_0_1_3
*69 FILLER_0_1_40
*70 FILLER_0_2_10
*71 FILLER_0_2_22
*72 FILLER_0_2_29
*73 FILLER_0_2_41
*74 FILLER_0_2_47
*75 FILLER_0_2_6
*76 FILLER_0_3_17
*77 FILLER_0_3_29
*78 FILLER_0_3_41
*79 FILLER_0_3_47
*80 FILLER_0_3_6
*81 FILLER_0_4_14
*82 FILLER_0_4_24
*83 FILLER_0_4_43
*84 FILLER_0_4_47
*85 FILLER_0_4_6
*86 FILLER_0_5_12
*87 FILLER_0_5_24
*88 FILLER_0_5_36
*89 FILLER_0_5_6
*90 FILLER_0_6_18
*91 FILLER_0_6_26
*92 FILLER_0_6_29
*93 FILLER_0_6_41
*94 FILLER_0_6_47
*95 FILLER_0_6_6
*96 FILLER_0_7_14
*97 FILLER_0_7_26
*98 FILLER_0_7_38
*99 FILLER_0_7_46
*100 FILLER_0_8_19
*101 FILLER_0_8_27
*102 FILLER_0_8_29
*103 FILLER_0_8_41
*104 FILLER_0_8_47
*105 FILLER_0_8_7
*106 FILLER_0_9_19
*107 FILLER_0_9_25
*108 FILLER_0_9_37
*109 FILLER_0_9_7
*110 PHY_EDGE_ROW_0_Left_13
*111 PHY_EDGE_ROW_0_Right_0
*112 PHY_EDGE_ROW_10_Left_23
*113 PHY_EDGE_ROW_10_Right_10
*114 PHY_EDGE_ROW_11_Left_24
*115 PHY_EDGE_ROW_11_Right_11
*116 PHY_EDGE_ROW_12_Left_25
*117 PHY_EDGE_ROW_12_Right_12
*118 PHY_EDGE_ROW_1_Left_14
*119 PHY_EDGE_ROW_1_Right_1
*120 PHY_EDGE_ROW_2_Left_15
*121 PHY_EDGE_ROW_2_Right_2
*122 PHY_EDGE_ROW_3_Left_16
*123 PHY_EDGE_ROW_3_Right_3
*124 PHY_EDGE_ROW_4_Left_17
*125 PHY_EDGE_ROW_4_Right_4
*126 PHY_EDGE_ROW_5_Left_18
*127 PHY_EDGE_ROW_5_Right_5
*128 PHY_EDGE_ROW_6_Left_19
*129 PHY_EDGE_ROW_6_Right_6
*130 PHY_EDGE_ROW_7_Left_20
*131 PHY_EDGE_ROW_7_Right_7
*132 PHY_EDGE_ROW_8_Left_21
*133 PHY_EDGE_ROW_8_Right_8
*134 PHY_EDGE_ROW_9_Left_22
*135 PHY_EDGE_ROW_9_Right_9
*136 TAP_TAPCELL_ROW_0_26
*137 TAP_TAPCELL_ROW_10_31
*138 TAP_TAPCELL_ROW_12_32
*139 TAP_TAPCELL_ROW_2_27
*140 TAP_TAPCELL_ROW_4_28
*141 TAP_TAPCELL_ROW_6_29
*142 TAP_TAPCELL_ROW_8_30
*143 _10_
*144 _11_
*145 _12_
*146 _13_
*147 _14_
*148 _15_
*149 _16_
*150 _17_
*151 _18_
*152 _19_
*153 _20_
*154 _21_
*155 _22_
*156 _23_
*157 _24_
*158 _25_
*159 _26_
*160 _27_
*161 input1
*162 input2
*163 input3
*164 input4
*165 input5
*166 input6
*167 input7
*168 input8
*169 output10
*170 output11
*171 output12
*172 output13
*173 output14
*174 output15
*175 output16
*176 output9

*PORTS
a1[0] I
a1[1] I
a1[2] I
a1[3] I
a1[4] I
a1[5] I
a1[6] I
a1[7] I
b1[0] O
b1[1] O
b1[2] O
b1[3] O
b1[4] O
b1[5] O
b1[6] O
b1[7] O

*D_NET *3 0.000733229
*CONN
*P a1[0] I
*I *161:A I *D sky130_fd_sc_hd__buf_1
*CAP
1 a1[0] 0.000286231
2 *161:A 0.000286231
3 *161:A b1[6] 0
4 *161:A b1[7] 3.36969e-05
5 *161:A *145:B1 8.68445e-05
6 *161:A *162:A 4.02259e-05
*RES
1 a1[0] *161:A 19.9443 
*END

*D_NET *4 0.000744332
*CONN
*P a1[1] I
*I *162:A I *D sky130_fd_sc_hd__buf_1
*CAP
1 a1[1] 0.000331355
2 *162:A 0.000331355
3 *162:A *145:B1 0
4 *162:A *150:B 0
5 *162:A *163:A 4.13962e-05
6 *161:A *162:A 4.02259e-05
*RES
1 a1[1] *162:A 21.9981 
*END

*D_NET *5 0.000706899
*CONN
*P a1[2] I
*I *163:A I *D sky130_fd_sc_hd__buf_1
*CAP
1 a1[2] 0.000314496
2 *163:A 0.000314496
3 *163:A *150:B 0
4 *163:A *164:A 3.65097e-05
5 *162:A *163:A 4.13962e-05
*RES
1 a1[2] *163:A 21.6946 
*END

*D_NET *6 0.000703435
*CONN
*P a1[3] I
*I *164:A I *D sky130_fd_sc_hd__clkbuf_1
*CAP
1 a1[3] 0.00031335
2 *164:A 0.00031335
3 *164:A *150:B 0
4 *164:A *165:A 4.02259e-05
5 *163:A *164:A 3.65097e-05
*RES
1 a1[3] *164:A 22.0661 
*END

*D_NET *7 0.000706415
*CONN
*P a1[4] I
*I *165:A I *D sky130_fd_sc_hd__buf_1
*CAP
1 a1[4] 0.000317268
2 *165:A 0.000317268
3 *165:A *150:B 0
4 *165:A *166:A 3.16528e-05
5 *164:A *165:A 4.02259e-05
*RES
1 a1[4] *165:A 21.6946 
*END

*D_NET *8 0.000858571
*CONN
*P a1[5] I
*I *166:A I *D sky130_fd_sc_hd__buf_1
*CAP
1 a1[5] 0.00018042
2 *166:A 0.00018042
3 *166:A *167:A 0.000271182
4 *166:A *168:A 0.000194897
5 *165:A *166:A 3.16528e-05
*RES
1 a1[5] *166:A 20.4803 
*END

*D_NET *9 0.00115371
*CONN
*P a1[6] I
*I *167:A I *D sky130_fd_sc_hd__buf_1
*CAP
1 a1[6] 0.00027685
2 *167:A 0.00027685
3 *167:A *168:A 0.00027168
4 *167:A *41:6 5.71472e-05
5 *166:A *167:A 0.000271182
*RES
1 a1[6] *167:A 23.1197 
*END

*D_NET *10 0.00154923
*CONN
*P a1[7] I
*I *168:A I *D sky130_fd_sc_hd__buf_1
*CAP
1 a1[7] 0.000488114
2 *168:A 0.000488114
3 *168:A *41:6 4.98309e-05
4 *168:A *42:10 5.65955e-05
5 *166:A *168:A 0.000194897
6 *167:A *168:A 0.00027168
*RES
1 a1[7] *168:A 27.0489 
*END

*D_NET *11 0.00151926
*CONN
*P b1[0] O
*I *176:X O *D sky130_fd_sc_hd__buf_2
*CAP
1 b1[0] 0.000582511
2 *176:X 0.000582511
3 b1[0] b1[1] 0.000328
4 b1[0] *30:16 2.62426e-05
*RES
1 *176:X b1[0] 24.1044 
*END

*D_NET *12 0.00092244
*CONN
*P b1[1] O
*I *169:X O *D sky130_fd_sc_hd__buf_2
*CAP
1 b1[1] 0.000208658
2 *169:X 0.000208658
3 b1[1] b1[2] 0.000123791
4 b1[1] b1[3] 0
5 b1[1] *31:14 5.33334e-05
6 b1[0] b1[1] 0.000328
*RES
1 *169:X b1[1] 21.9947 
*END

*D_NET *13 0.000804581
*CONN
*P b1[2] O
*I *170:X O *D sky130_fd_sc_hd__buf_2
*CAP
1 b1[2] 0.00032214
2 *170:X 0.00032214
3 b1[2] b1[3] 3.65097e-05
4 b1[1] b1[2] 0.000123791
*RES
1 *170:X b1[2] 21.4981 
*END

*D_NET *14 0.000754795
*CONN
*P b1[3] O
*I *171:X O *D sky130_fd_sc_hd__buf_2
*CAP
1 b1[3] 0.000300653
2 *171:X 0.000300653
3 b1[3] b1[4] 4.36498e-05
4 b1[3] b1[5] 0
5 b1[3] *171:A 7.33295e-05
6 b1[1] b1[3] 0
7 b1[2] b1[3] 3.65097e-05
*RES
1 *171:X b1[3] 19.7128 
*END

*D_NET *15 0.000787447
*CONN
*P b1[4] O
*I *172:X O *D sky130_fd_sc_hd__buf_2
*CAP
1 b1[4] 0.000353644
2 *172:X 0.000353644
3 b1[4] b1[5] 3.65097e-05
4 b1[4] *171:A 0
5 b1[3] b1[4] 4.36498e-05
*RES
1 *172:X b1[4] 21.4981 
*END

*D_NET *16 0.000676478
*CONN
*P b1[5] O
*I *173:X O *D sky130_fd_sc_hd__buf_2
*CAP
1 b1[5] 0.000243927
2 *173:X 0.000243927
3 b1[5] b1[6] 9.28876e-05
4 b1[5] *171:A 5.92267e-05
5 b1[3] b1[5] 0
6 b1[4] b1[5] 3.65097e-05
*RES
1 *173:X b1[5] 19.4092 
*END

*D_NET *17 0.000786922
*CONN
*P b1[6] O
*I *174:X O *D sky130_fd_sc_hd__buf_2
*CAP
1 b1[6] 0.000326904
2 *174:X 0.000326904
3 b1[6] b1[7] 4.02259e-05
4 b1[6] *171:A 0
5 b1[5] b1[6] 9.28876e-05
6 *161:A b1[6] 0
*RES
1 *174:X b1[6] 20.5501 
*END

*D_NET *18 0.000803486
*CONN
*P b1[7] O
*I *175:X O *D sky130_fd_sc_hd__buf_2
*CAP
1 b1[7] 0.000364782
2 *175:X 0.000364782
3 b1[7] *145:B1 0
4 b1[6] b1[7] 4.02259e-05
5 *161:A b1[7] 3.36969e-05
*RES
1 *175:X b1[7] 21.4981 
*END

*D_NET *19 0.00132228
*CONN
*I *159:A I *D sky130_fd_sc_hd__nor2_1
*I *144:B I *D sky130_fd_sc_hd__xnor2_1
*I *143:Y O *D sky130_fd_sc_hd__nor2_1
*CAP
1 *159:A 0.00011927
2 *144:B 0
3 *143:Y 0.00023603
4 *19:12 0.000355299
5 *159:A *144:A 0
6 *159:A *146:B 0.000202253
7 *159:A *146:C 0.000140393
8 *159:A *30:16 2.28499e-05
9 *159:A *38:23 2.89114e-05
10 *19:12 *143:A 0
11 *19:12 *143:B 9.93955e-05
12 *19:12 *29:16 0.000100969
13 *19:12 *40:25 1.69115e-05
14 *19:12 *43:14 0
*RES
1 *143:Y *19:12 23.2286 
2 *19:12 *144:B 9.3 
3 *19:12 *159:A 12.7286 
*END

*D_NET *20 0.00150149
*CONN
*I *147:A_N I *D sky130_fd_sc_hd__and2b_1
*I *145:X O *D sky130_fd_sc_hd__o31a_1
*CAP
1 *147:A_N 0.000417799
2 *145:X 0.000417799
3 *147:A_N *145:A1 0
4 *147:A_N *145:A2 0.000310243
5 *147:A_N *146:A 3.13687e-05
6 *147:A_N *30:16 0.000293415
7 *147:A_N *37:34 3.08664e-05
*RES
1 *145:X *147:A_N 35.3143 
*END

*D_NET *21 0.00906455
*CONN
*I *154:A3 I *D sky130_fd_sc_hd__o31ai_1
*I *149:B I *D sky130_fd_sc_hd__nor2_1
*I *147:B I *D sky130_fd_sc_hd__and2b_1
*I *150:B I *D sky130_fd_sc_hd__and2_1
*I *153:D I *D sky130_fd_sc_hd__or4_1
*I *146:X O *D sky130_fd_sc_hd__or4_2
*CAP
1 *154:A3 0.000262584
2 *149:B 0.000108211
3 *147:B 0
4 *150:B 0.000781837
5 *153:D 0.000301303
6 *146:X 0
7 *21:53 0.000763926
8 *21:25 0.00115497
9 *21:23 0.00100998
10 *21:6 0.000545016
11 *149:B *173:A 0.000228558
12 *149:B *23:6 0.0002214
13 *150:B *145:B1 0.000272658
14 *150:B *148:A 0
15 *150:B *171:A 0.000106299
16 *150:B *37:8 0.000247352
17 *150:B *40:10 0.000128161
18 *150:B *40:17 9.90431e-05
19 *150:B *43:14 0
20 *153:D *146:A 4.81157e-05
21 *153:D *153:A 5.71472e-05
22 *153:D *154:B1 0.000333233
23 *153:D *25:14 5.52302e-05
24 *153:D *41:10 0
25 *154:A3 *152:B 5.66157e-05
26 *154:A3 *154:A2 0.000172727
27 *154:A3 *44:14 0
28 *21:23 *146:A 0.000311105
29 *21:23 *154:B1 5.33882e-05
30 *21:25 *146:A 0.000596577
31 *21:25 *159:B 9.41642e-05
32 *21:25 *37:8 5.33005e-05
33 *21:25 *37:34 0.000172687
34 *21:53 *152:B 0.000828961
35 *21:53 *173:A 0
36 *162:A *150:B 0
37 *163:A *150:B 0
38 *164:A *150:B 0
39 *165:A *150:B 0
*RES
1 *146:X *21:6 13.8 
2 *21:6 *153:D 22.05 
3 *21:6 *21:23 9.25 
4 *21:23 *21:25 7.92857 
5 *21:25 *150:B 33.3714 
6 *21:25 *147:B 9.3 
7 *21:23 *21:53 14.9464 
8 *21:53 *149:B 17.6214 
9 *21:53 *154:A3 18.8179 
*END

*D_NET *22 0.00131725
*CONN
*I *148:A I *D sky130_fd_sc_hd__clkbuf_1
*I *147:X O *D sky130_fd_sc_hd__and2b_1
*CAP
1 *148:A 0.00039676
2 *147:X 0.00039676
3 *148:A *145:A3 0
4 *148:A *171:A 0
5 *148:A *43:14 0.000523731
6 *150:B *148:A 0
*RES
1 *147:X *148:A 36.1714 
*END

*D_NET *23 0.00462531
*CONN
*I *151:A I *D sky130_fd_sc_hd__nor2_1
*I *152:B I *D sky130_fd_sc_hd__xnor2_1
*I *149:Y O *D sky130_fd_sc_hd__nor2_1
*CAP
1 *151:A 0.000495333
2 *152:B 0.000287021
3 *149:Y 0.000343636
4 *23:6 0.00112599
5 *151:A *151:B 6.42338e-05
6 *151:A *156:A 0.000166416
7 *152:B *154:A2 0.00102012
8 *152:B *173:A 0
9 *23:6 *173:A 1.55885e-05
10 *149:B *23:6 0.0002214
11 *154:A3 *152:B 5.66157e-05
12 *21:53 *152:B 0.000828961
*RES
1 *149:Y *23:6 13.9429 
2 *23:6 *152:B 31.175 
3 *23:6 *151:A 24.9964 
*END

*D_NET *24 0.00617492
*CONN
*I *151:B I *D sky130_fd_sc_hd__nor2_1
*I *150:X O *D sky130_fd_sc_hd__and2_1
*CAP
1 *151:B 0.000774831
2 *150:X 0.000706052
3 *24:8 0.00148088
4 *151:B *154:B1 0.0017444
5 *151:B *174:A 0.000153054
6 *151:B *42:10 3.34366e-05
7 *24:8 *153:A 0.000597922
8 *24:8 *40:17 0.000620114
9 *151:A *151:B 6.42338e-05
*RES
1 *150:X *24:8 28.3 
2 *24:8 *151:B 36.0857 
*END

*D_NET *25 0.0052389
*CONN
*I *155:A I *D sky130_fd_sc_hd__and2_1
*I *157:B I *D sky130_fd_sc_hd__xor2_1
*I *153:X O *D sky130_fd_sc_hd__or4_1
*CAP
1 *155:A 0
2 *157:B 0.000329611
3 *153:X 0.00119827
4 *25:14 0.00152788
5 *157:B *172:A 0.000400382
6 *25:14 *146:A 6.72808e-05
7 *25:14 *153:A 0.000186369
8 *25:14 *154:A2 0.0011947
9 *25:14 *154:B1 0
10 *25:14 *155:B 3.34295e-05
11 *25:14 *156:A 4.48113e-05
12 *25:14 *172:A 1.98839e-05
13 *25:14 *41:10 0.000181058
14 *153:D *25:14 5.52302e-05
*RES
1 *153:X *25:14 44.8536 
2 *25:14 *157:B 16.4071 
3 *25:14 *155:A 9.3 
*END

*D_NET *26 0.000367487
*CONN
*I *155:B I *D sky130_fd_sc_hd__and2_1
*I *154:Y O *D sky130_fd_sc_hd__o31ai_1
*CAP
1 *155:B 0.000134822
2 *154:Y 0.000134822
3 *155:B *154:A2 6.07232e-05
4 *155:B *154:B1 3.69047e-06
5 *25:14 *155:B 3.34295e-05
*RES
1 *154:Y *155:B 30.0821 
*END

*D_NET *27 0.000699088
*CONN
*I *156:A I *D sky130_fd_sc_hd__clkbuf_1
*I *155:X O *D sky130_fd_sc_hd__and2_1
*CAP
1 *156:A 0.00024393
2 *155:X 0.00024393
3 *156:A *154:B1 0
4 *151:A *156:A 0.000166416
5 *25:14 *156:A 4.48113e-05
*RES
1 *155:X *156:A 32.6536 
*END

*D_NET *28 0.000592043
*CONN
*I *159:B I *D sky130_fd_sc_hd__nor2_1
*I *158:X O *D sky130_fd_sc_hd__and2_1
*CAP
1 *159:B 0.000176063
2 *158:X 0.000176063
3 *159:B *152:A 0
4 *159:B *154:A2 0
5 *159:B *44:14 0.000145753
6 *21:25 *159:B 9.41642e-05
*RES
1 *158:X *159:B 30.4929 
*END

*D_NET *29 0.00673109
*CONN
*I *145:A2 I *D sky130_fd_sc_hd__o31a_1
*I *158:B I *D sky130_fd_sc_hd__and2_1
*I *146:B I *D sky130_fd_sc_hd__or4_2
*I *160:A I *D sky130_fd_sc_hd__clkbuf_1
*I *143:B I *D sky130_fd_sc_hd__nor2_1
*I *161:X O *D sky130_fd_sc_hd__buf_1
*CAP
1 *145:A2 0.000300616
2 *158:B 3.04135e-05
3 *146:B 0.000405608
4 *160:A 0.000374512
5 *143:B 0.000132053
6 *161:X 0.000682515
7 *29:16 0.000611081
8 *29:12 0.000576813
9 *29:10 0.000135699
10 *29:8 0.00102173
11 *145:A2 *145:A1 9.56151e-05
12 *145:A2 *30:16 0.000216771
13 *145:A2 *40:25 0.000226021
14 *146:B *146:C 0.000115171
15 *146:B *30:16 0.000135028
16 *158:B *146:A 5.33005e-05
17 *160:A *40:25 0
18 *160:A *41:10 0
19 *160:A *44:14 0.000127506
20 *29:10 *30:16 0.000117189
21 *29:10 *40:25 0.000126439
22 *29:12 *143:A 0
23 *29:12 *30:16 0.000146474
24 *29:12 *40:25 0.000168939
25 *29:16 *143:A 0
26 *29:16 *40:25 0.000218734
27 *147:A_N *145:A2 0.000310243
28 *159:A *146:B 0.000202253
29 *19:12 *143:B 9.93955e-05
30 *19:12 *29:16 0.000100969
*RES
1 *161:X *29:8 20.9071 
2 *29:8 *29:10 1.64286 
3 *29:10 *29:12 2.25 
4 *29:12 *29:16 7.35714 
5 *29:16 *143:B 11.8893 
6 *29:16 *160:A 25.4607 
7 *29:12 *146:B 20.2286 
8 *29:10 *158:B 14.3357 
9 *29:8 *145:A2 21.7107 
*END

*D_NET *30 0.00422233
*CONN
*I *169:A I *D sky130_fd_sc_hd__buf_2
*I *159:Y O *D sky130_fd_sc_hd__nor2_1
*CAP
1 *169:A 0
2 *159:Y 0.0010982
3 *30:16 0.0010982
4 *30:16 *143:A 0
5 *30:16 *145:A1 0
6 *30:16 *154:A1 0.000383754
7 *30:16 *40:25 0.000316143
8 *30:16 *43:14 0
9 *30:16 *44:14 0.000368059
10 b1[0] *30:16 2.62426e-05
11 *145:A2 *30:16 0.000216771
12 *146:B *30:16 0.000135028
13 *147:A_N *30:16 0.000293415
14 *159:A *30:16 2.28499e-05
15 *29:10 *30:16 0.000117189
16 *29:12 *30:16 0.000146474
*RES
1 *159:Y *30:16 43.4786 
2 *30:16 *169:A 9.3 
*END

*D_NET *31 0.00361248
*CONN
*I *170:A I *D sky130_fd_sc_hd__buf_2
*I *144:Y O *D sky130_fd_sc_hd__xnor2_1
*CAP
1 *170:A 0
2 *144:Y 0.00110294
3 *31:14 0.00110294
4 *31:14 *145:A3 0.000509472
5 *31:14 *171:A 0.00012447
6 *31:14 *175:A 0.00058246
7 *31:14 *38:23 0.000136867
8 b1[1] *31:14 5.33334e-05
*RES
1 *144:Y *31:14 42.0143 
2 *31:14 *170:A 9.3 
*END

*D_NET *32 0.00373201
*CONN
*I *171:A I *D sky130_fd_sc_hd__buf_2
*I *148:X O *D sky130_fd_sc_hd__clkbuf_1
*CAP
1 *171:A 0.000730718
2 *148:X 0.000730718
3 *171:A *145:A3 0.00058416
4 *171:A *145:B1 0.000699634
5 *171:A *146:D 3.92854e-05
6 *171:A *175:A 0.000584174
7 b1[3] *171:A 7.33295e-05
8 b1[4] *171:A 0
9 b1[5] *171:A 5.92267e-05
10 b1[6] *171:A 0
11 *148:A *171:A 0
12 *150:B *171:A 0.000106299
13 *31:14 *171:A 0.00012447
*RES
1 *148:X *171:A 49.5107 
*END

*D_NET *33 0.00266768
*CONN
*I *172:A I *D sky130_fd_sc_hd__buf_2
*I *151:Y O *D sky130_fd_sc_hd__nor2_1
*CAP
1 *172:A 0.00098115
2 *151:Y 0.00098115
3 *172:A *175:A 0.000142952
4 *172:A *43:14 0.000142157
5 *157:B *172:A 0.000400382
6 *25:14 *172:A 1.98839e-05
*RES
1 *151:Y *172:A 35.1714 
*END

*D_NET *34 0.00278422
*CONN
*I *173:A I *D sky130_fd_sc_hd__buf_2
*I *152:Y O *D sky130_fd_sc_hd__xnor2_1
*CAP
1 *173:A 0.00127004
2 *152:Y 0.00127004
3 *173:A *44:14 0
4 *149:B *173:A 0.000228558
5 *152:B *173:A 0
6 *21:53 *173:A 0
7 *23:6 *173:A 1.55885e-05
*RES
1 *152:Y *173:A 49.2607 
*END

*D_NET *35 0.00249054
*CONN
*I *174:A I *D sky130_fd_sc_hd__buf_2
*I *156:X O *D sky130_fd_sc_hd__clkbuf_1
*CAP
1 *174:A 0.00116874
2 *156:X 0.00116874
3 *151:B *174:A 0.000153054
*RES
1 *156:X *174:A 45.6893 
*END

*D_NET *36 0.00196598
*CONN
*I *175:A I *D sky130_fd_sc_hd__buf_2
*I *157:X O *D sky130_fd_sc_hd__xor2_1
*CAP
1 *175:A 0.000300584
2 *157:X 0.000300584
3 *175:A *145:B1 5.52302e-05
4 *171:A *175:A 0.000584174
5 *172:A *175:A 0.000142952
6 *31:14 *175:A 0.00058246
*RES
1 *157:X *175:A 38.1357 
*END

*D_NET *37 0.00499506
*CONN
*I *146:A I *D sky130_fd_sc_hd__or4_2
*I *158:A I *D sky130_fd_sc_hd__and2_1
*I *145:A1 I *D sky130_fd_sc_hd__o31a_1
*I *143:A I *D sky130_fd_sc_hd__nor2_1
*I *162:X O *D sky130_fd_sc_hd__buf_1
*CAP
1 *146:A 0.000433156
2 *158:A 0
3 *145:A1 0.000300076
4 *143:A 0.00024143
5 *162:X 0.000231447
6 *37:34 0.000488493
7 *37:10 0.000541505
8 *37:8 0.000286784
9 *143:A *43:14 0.000360823
10 *145:A1 *43:14 0.000403783
11 *145:A2 *145:A1 9.56151e-05
12 *147:A_N *145:A1 0
13 *147:A_N *146:A 3.13687e-05
14 *147:A_N *37:34 3.08664e-05
15 *150:B *37:8 0.000247352
16 *153:D *146:A 4.81157e-05
17 *158:B *146:A 5.33005e-05
18 *19:12 *143:A 0
19 *21:23 *146:A 0.000311105
20 *21:25 *146:A 0.000596577
21 *21:25 *37:8 5.33005e-05
22 *21:25 *37:34 0.000172687
23 *25:14 *146:A 6.72808e-05
24 *29:12 *143:A 0
25 *29:16 *143:A 0
26 *30:16 *143:A 0
27 *30:16 *145:A1 0
*RES
1 *162:X *37:8 13.9607 
2 *37:8 *37:10 4.5 
3 *37:10 *143:A 19.0143 
4 *37:10 *145:A1 20.8536 
5 *37:8 *37:34 1.76786 
6 *37:34 *158:A 9.3 
7 *37:34 *146:A 29.1929 
*END

*D_NET *38 0.00429376
*CONN
*I *146:C I *D sky130_fd_sc_hd__or4_2
*I *144:A I *D sky130_fd_sc_hd__xnor2_1
*I *145:A3 I *D sky130_fd_sc_hd__o31a_1
*I *163:X O *D sky130_fd_sc_hd__buf_1
*CAP
1 *146:C 0.00023525
2 *144:A 2.23854e-05
3 *145:A3 0.000232499
4 *163:X 0.000100311
5 *38:23 0.000443046
6 *38:8 0.000518221
7 *145:A3 *145:B1 5.33005e-05
8 *146:C *146:D 0.000609447
9 *38:23 *146:D 0.000564323
10 *146:B *146:C 0.000115171
11 *148:A *145:A3 0
12 *159:A *144:A 0
13 *159:A *146:C 0.000140393
14 *159:A *38:23 2.89114e-05
15 *171:A *145:A3 0.00058416
16 *31:14 *145:A3 0.000509472
17 *31:14 *38:23 0.000136867
*RES
1 *163:X *38:8 10.675 
2 *38:8 *145:A3 26.6571 
3 *38:8 *38:23 5.875 
4 *38:23 *144:A 9.72857 
5 *38:23 *146:C 16.9607 
*END

*D_NET *39 0.0052278
*CONN
*I *146:D I *D sky130_fd_sc_hd__or4_2
*I *145:B1 I *D sky130_fd_sc_hd__o31a_1
*I *164:X O *D sky130_fd_sc_hd__clkbuf_1
*CAP
1 *146:D 0.00103348
2 *145:B1 0.000390058
3 *164:X 0
4 *39:4 0.00142354
5 b1[7] *145:B1 0
6 *145:A3 *145:B1 5.33005e-05
7 *146:C *146:D 0.000609447
8 *150:B *145:B1 0.000272658
9 *161:A *145:B1 8.68445e-05
10 *162:A *145:B1 0
11 *171:A *145:B1 0.000699634
12 *171:A *146:D 3.92854e-05
13 *175:A *145:B1 5.52302e-05
14 *38:23 *146:D 0.000564323
*RES
1 *164:X *39:4 9.3 
2 *39:4 *145:B1 29.0143 
3 *39:4 *146:D 32.7464 
*END

*D_NET *40 0.00811431
*CONN
*I *153:A I *D sky130_fd_sc_hd__or4_1
*I *154:A1 I *D sky130_fd_sc_hd__o31ai_1
*I *149:A I *D sky130_fd_sc_hd__nor2_1
*I *150:A I *D sky130_fd_sc_hd__and2_1
*I *165:X O *D sky130_fd_sc_hd__buf_1
*CAP
1 *153:A 0.000317877
2 *154:A1 0.00038114
3 *149:A 0
4 *150:A 0
5 *165:X 8.83224e-05
6 *40:25 0.000961969
7 *40:17 0.00119379
8 *40:10 0.000383403
9 *153:A *44:14 2.27416e-05
10 *154:A1 *44:14 0.000209584
11 *40:10 *43:14 0
12 *40:25 *41:10 0
13 *40:25 *43:14 0
14 *40:25 *44:14 0.00140979
15 *145:A2 *40:25 0.000226021
16 *150:B *40:10 0.000128161
17 *150:B *40:17 9.90431e-05
18 *153:D *153:A 5.71472e-05
19 *160:A *40:25 0
20 *19:12 *40:25 1.69115e-05
21 *24:8 *153:A 0.000597922
22 *24:8 *40:17 0.000620114
23 *25:14 *153:A 0.000186369
24 *29:10 *40:25 0.000126439
25 *29:12 *40:25 0.000168939
26 *29:16 *40:25 0.000218734
27 *30:16 *154:A1 0.000383754
28 *30:16 *40:25 0.000316143
*RES
1 *165:X *40:10 20.2464 
2 *40:10 *150:A 9.3 
3 *40:10 *40:17 7.51786 
4 *40:17 *40:25 25.0179 
5 *40:25 *149:A 13.8 
6 *40:25 *154:A1 23.0143 
7 *40:17 *153:A 19.0143 
*END

*D_NET *41 0.00767753
*CONN
*I *153:B I *D sky130_fd_sc_hd__or4_1
*I *154:A2 I *D sky130_fd_sc_hd__o31ai_1
*I *152:A I *D sky130_fd_sc_hd__xnor2_1
*I *166:X O *D sky130_fd_sc_hd__buf_1
*CAP
1 *153:B 0.00034209
2 *154:A2 0.000518634
3 *152:A 6.15001e-06
4 *166:X 0.00085067
5 *41:10 0.00102031
6 *41:6 0.00168828
7 *152:A *44:14 0
8 *153:B *42:10 0.000220091
9 *154:A2 *154:B1 0
10 *41:6 *42:10 0.000295007
11 *41:10 *154:B1 0
12 *41:10 *42:10 0
13 *41:10 *44:14 0
14 *152:B *154:A2 0.00102012
15 *153:D *41:10 0
16 *154:A3 *154:A2 0.000172727
17 *155:B *154:A2 6.07232e-05
18 *159:B *152:A 0
19 *159:B *154:A2 0
20 *160:A *41:10 0
21 *167:A *41:6 5.71472e-05
22 *168:A *41:6 4.98309e-05
23 *25:14 *154:A2 0.0011947
24 *25:14 *41:10 0.000181058
25 *40:25 *41:10 0
*RES
1 *166:X *41:6 20.925 
2 *41:6 *41:10 14.7946 
3 *41:10 *152:A 14.0768 
4 *41:10 *154:A2 32.7643 
5 *41:6 *153:B 24.675 
*END

*D_NET *42 0.00651774
*CONN
*I *154:B1 I *D sky130_fd_sc_hd__o31ai_1
*I *153:C I *D sky130_fd_sc_hd__or4_1
*I *167:X O *D sky130_fd_sc_hd__buf_1
*CAP
1 *154:B1 0.00100719
2 *153:C 0
3 *167:X 0.000809936
4 *42:10 0.00181712
5 *42:10 *43:14 0.000143652
6 *151:B *154:B1 0.0017444
7 *151:B *42:10 3.34366e-05
8 *153:B *42:10 0.000220091
9 *153:D *154:B1 0.000333233
10 *154:A2 *154:B1 0
11 *155:B *154:B1 3.69047e-06
12 *156:A *154:B1 0
13 *168:A *42:10 5.65955e-05
14 *21:23 *154:B1 5.33882e-05
15 *25:14 *154:B1 0
16 *41:6 *42:10 0.000295007
17 *41:10 *154:B1 0
18 *41:10 *42:10 0
*RES
1 *167:X *42:10 30.2464 
2 *42:10 *153:C 13.8 
3 *42:10 *154:B1 41.1036 
*END

*D_NET *43 0.0040469
*CONN
*I *157:A I *D sky130_fd_sc_hd__xor2_1
*I *168:X O *D sky130_fd_sc_hd__buf_1
*CAP
1 *157:A 0
2 *168:X 0.00123638
3 *43:14 0.00123638
4 *143:A *43:14 0.000360823
5 *145:A1 *43:14 0.000403783
6 *148:A *43:14 0.000523731
7 *150:B *43:14 0
8 *172:A *43:14 0.000142157
9 *19:12 *43:14 0
10 *30:16 *43:14 0
11 *40:10 *43:14 0
12 *40:25 *43:14 0
13 *42:10 *43:14 0.000143652
*RES
1 *168:X *43:14 44.5143 
2 *43:14 *157:A 9.3 
*END

*D_NET *44 0.00469244
*CONN
*I *176:A I *D sky130_fd_sc_hd__buf_2
*I *160:X O *D sky130_fd_sc_hd__clkbuf_1
*CAP
1 *176:A 0
2 *160:X 0.0012045
3 *44:14 0.0012045
4 *152:A *44:14 0
5 *153:A *44:14 2.27416e-05
6 *154:A1 *44:14 0.000209584
7 *154:A3 *44:14 0
8 *159:B *44:14 0.000145753
9 *160:A *44:14 0.000127506
10 *173:A *44:14 0
11 *30:16 *44:14 0.000368059
12 *40:25 *44:14 0.00140979
13 *41:10 *44:14 0
*RES
1 *160:X *44:14 48.9964 
2 *44:14 *176:A 9.3 
*END
