*SPEF "ieee 1481-1999"
*DESIGN "twos_complement"
*DATE "18:37:14 Thursday April 24, 2025"
*VENDOR "The OpenROAD Project"
*PROGRAM "OpenROAD"
*VERSION "b16bda7e82721d10566ff7e2b68f1ff0be9f9e38"
*DESIGN_FLOW "NAME_SCOPE LOCAL" "PIN_CAP NONE"
*DIVIDER /
*DELIMITER :
*BUS_DELIMITER []
*T_UNIT 1 NS
*C_UNIT 1 PF
*R_UNIT 1 OHM
*L_UNIT 1 HENRY

*NAME_MAP
*3 a1[0]
*4 a1[1]
*5 a1[2]
*6 a1[3]
*7 a1[4]
*8 a1[5]
*9 a1[6]
*10 a1[7]
*11 b1[0]
*12 b1[1]
*13 b1[2]
*14 b1[3]
*15 b1[4]
*16 b1[5]
*17 b1[6]
*18 b1[7]
*19 _00_
*20 _01_
*21 _02_
*22 _03_
*23 _04_
*24 _05_
*25 _06_
*26 _07_
*27 _08_
*28 _09_
*29 net1
*30 net10
*31 net11
*32 net12
*33 net13
*34 net14
*35 net15
*36 net16
*37 net2
*38 net3
*39 net4
*40 net5
*41 net6
*42 net7
*43 net8
*44 net9
*45 FILLER_0_0_12
*46 FILLER_0_0_24
*47 FILLER_0_0_29
*48 FILLER_0_0_41
*49 FILLER_0_0_47
*50 FILLER_0_10_20
*51 FILLER_0_10_29
*52 FILLER_0_10_40
*53 FILLER_0_10_47
*54 FILLER_0_10_7
*55 FILLER_0_11_19
*56 FILLER_0_11_31
*57 FILLER_0_11_38
*58 FILLER_0_11_46
*59 FILLER_0_11_7
*60 FILLER_0_12_15
*61 FILLER_0_12_27
*62 FILLER_0_12_29
*63 FILLER_0_12_41
*64 FILLER_0_12_47
*65 FILLER_0_1_10
*66 FILLER_0_1_22
*67 FILLER_0_1_28
*68 FILLER_0_1_3
*69 FILLER_0_1_40
*70 FILLER_0_2_10
*71 FILLER_0_2_22
*72 FILLER_0_2_29
*73 FILLER_0_2_41
*74 FILLER_0_2_47
*75 FILLER_0_2_6
*76 FILLER_0_3_17
*77 FILLER_0_3_29
*78 FILLER_0_3_41
*79 FILLER_0_3_47
*80 FILLER_0_3_6
*81 FILLER_0_4_14
*82 FILLER_0_4_24
*83 FILLER_0_4_43
*84 FILLER_0_4_47
*85 FILLER_0_4_6
*86 FILLER_0_5_12
*87 FILLER_0_5_24
*88 FILLER_0_5_36
*89 FILLER_0_5_6
*90 FILLER_0_6_18
*91 FILLER_0_6_26
*92 FILLER_0_6_29
*93 FILLER_0_6_41
*94 FILLER_0_6_47
*95 FILLER_0_6_6
*96 FILLER_0_7_14
*97 FILLER_0_7_26
*98 FILLER_0_7_38
*99 FILLER_0_7_46
*100 FILLER_0_8_19
*101 FILLER_0_8_27
*102 FILLER_0_8_29
*103 FILLER_0_8_41
*104 FILLER_0_8_47
*105 FILLER_0_8_7
*106 FILLER_0_9_19
*107 FILLER_0_9_25
*108 FILLER_0_9_37
*109 FILLER_0_9_7
*110 PHY_EDGE_ROW_0_Left_13
*111 PHY_EDGE_ROW_0_Right_0
*112 PHY_EDGE_ROW_10_Left_23
*113 PHY_EDGE_ROW_10_Right_10
*114 PHY_EDGE_ROW_11_Left_24
*115 PHY_EDGE_ROW_11_Right_11
*116 PHY_EDGE_ROW_12_Left_25
*117 PHY_EDGE_ROW_12_Right_12
*118 PHY_EDGE_ROW_1_Left_14
*119 PHY_EDGE_ROW_1_Right_1
*120 PHY_EDGE_ROW_2_Left_15
*121 PHY_EDGE_ROW_2_Right_2
*122 PHY_EDGE_ROW_3_Left_16
*123 PHY_EDGE_ROW_3_Right_3
*124 PHY_EDGE_ROW_4_Left_17
*125 PHY_EDGE_ROW_4_Right_4
*126 PHY_EDGE_ROW_5_Left_18
*127 PHY_EDGE_ROW_5_Right_5
*128 PHY_EDGE_ROW_6_Left_19
*129 PHY_EDGE_ROW_6_Right_6
*130 PHY_EDGE_ROW_7_Left_20
*131 PHY_EDGE_ROW_7_Right_7
*132 PHY_EDGE_ROW_8_Left_21
*133 PHY_EDGE_ROW_8_Right_8
*134 PHY_EDGE_ROW_9_Left_22
*135 PHY_EDGE_ROW_9_Right_9
*136 TAP_TAPCELL_ROW_0_26
*137 TAP_TAPCELL_ROW_10_31
*138 TAP_TAPCELL_ROW_12_32
*139 TAP_TAPCELL_ROW_2_27
*140 TAP_TAPCELL_ROW_4_28
*141 TAP_TAPCELL_ROW_6_29
*142 TAP_TAPCELL_ROW_8_30
*143 _10_
*144 _11_
*145 _12_
*146 _13_
*147 _14_
*148 _15_
*149 _16_
*150 _17_
*151 _18_
*152 _19_
*153 _20_
*154 _21_
*155 _22_
*156 _23_
*157 _24_
*158 _25_
*159 _26_
*160 _27_
*161 input1
*162 input2
*163 input3
*164 input4
*165 input5
*166 input6
*167 input7
*168 input8
*169 output10
*170 output11
*171 output12
*172 output13
*173 output14
*174 output15
*175 output16
*176 output9

*PORTS
a1[0] I
a1[1] I
a1[2] I
a1[3] I
a1[4] I
a1[5] I
a1[6] I
a1[7] I
b1[0] O
b1[1] O
b1[2] O
b1[3] O
b1[4] O
b1[5] O
b1[6] O
b1[7] O

*D_NET *3 0.000680354
*CONN
*P a1[0] I
*I *161:A I *D sky130_fd_sc_hd__buf_1
*CAP
1 a1[0] 0.000262123
2 *161:A 0.000262123
3 *161:A b1[6] 0
4 *161:A b1[7] 3.29345e-05
5 *161:A *145:B1 8.42096e-05
6 *161:A *162:A 3.8964e-05
*RES
1 a1[0] *161:A 6.37677 
*END

*D_NET *4 0.000692172
*CONN
*P a1[1] I
*I *162:A I *D sky130_fd_sc_hd__buf_1
*CAP
1 a1[1] 0.000306551
2 *162:A 0.000306551
3 *162:A *145:B1 0
4 *162:A *150:B 0
5 *162:A *163:A 4.01059e-05
6 *161:A *162:A 3.8964e-05
*RES
1 a1[1] *162:A 8.1093 
*END

*D_NET *5 0.000657155
*CONN
*P a1[2] I
*I *163:A I *D sky130_fd_sc_hd__buf_1
*CAP
1 a1[2] 0.000290739
2 *163:A 0.000290739
3 *163:A *150:B 0
4 *163:A *164:A 3.55714e-05
5 *162:A *163:A 4.01059e-05
*RES
1 a1[2] *163:A 7.8543 
*END

*D_NET *6 0.00065601
*CONN
*P a1[3] I
*I *164:A I *D sky130_fd_sc_hd__clkbuf_1
*CAP
1 a1[3] 0.000290737
2 *164:A 0.000290737
3 *164:A *150:B 0
4 *164:A *165:A 3.8964e-05
5 *163:A *164:A 3.55714e-05
*RES
1 a1[3] *164:A 8.17043 
*END

*D_NET *7 0.000656974
*CONN
*P a1[4] I
*I *165:A I *D sky130_fd_sc_hd__buf_1
*CAP
1 a1[4] 0.000293636
2 *165:A 0.000293636
3 *165:A *150:B 0
4 *165:A *166:A 3.07371e-05
5 *164:A *165:A 3.8964e-05
*RES
1 a1[4] *165:A 7.8543 
*END

*D_NET *8 0.000769967
*CONN
*P a1[5] I
*I *166:A I *D sky130_fd_sc_hd__buf_1
*CAP
1 a1[5] 0.000163227
2 *166:A 0.000163227
3 *166:A *167:A 0.000241163
4 *166:A *168:A 0.000171614
5 *165:A *166:A 3.07371e-05
*RES
1 a1[5] *166:A 6.8343 
*END

*D_NET *9 0.0010509
*CONN
*P a1[6] I
*I *167:A I *D sky130_fd_sc_hd__buf_1
*CAP
1 a1[6] 0.00025231
2 *167:A 0.00025231
3 *167:A *168:A 0.000255152
4 *167:A *41:6 4.99619e-05
5 *166:A *167:A 0.000241163
*RES
1 a1[6] *167:A 9.05543 
*END

*D_NET *10 0.0014217
*CONN
*P a1[7] I
*I *168:A I *D sky130_fd_sc_hd__buf_1
*CAP
1 a1[7] 0.000449511
2 *168:A 0.000449511
3 *168:A *41:6 4.69833e-05
4 *168:A *42:10 4.89295e-05
5 *166:A *168:A 0.000171614
6 *167:A *168:A 0.000255152
*RES
1 a1[7] *168:A 12.3537 
*END

*D_NET *11 0.00136729
*CONN
*P b1[0] O
*I *176:X O *D sky130_fd_sc_hd__buf_2
*CAP
1 b1[0] 0.000524421
2 *176:X 0.000524421
3 b1[0] b1[1] 0.000291525
4 b1[0] *169:A 2.69272e-05
*RES
1 *176:X b1[0] 9.8735 
*END

*D_NET *12 0.000843895
*CONN
*P b1[1] O
*I *169:X O *D sky130_fd_sc_hd__buf_2
*CAP
1 b1[1] 0.000189415
2 *169:X 0.000189415
3 b1[1] b1[2] 0.000122997
4 b1[1] b1[3] 0
5 b1[1] *170:A 5.05437e-05
6 b1[0] b1[1] 0.000291525
*RES
1 *169:X b1[1] 8.11043 
*END

*D_NET *13 0.00073844
*CONN
*P b1[2] O
*I *170:X O *D sky130_fd_sc_hd__buf_2
*CAP
1 b1[2] 0.000289936
2 *170:X 0.000289936
3 b1[2] b1[3] 3.55714e-05
4 b1[1] b1[2] 0.000122997
*RES
1 *170:X b1[2] 7.6893 
*END

*D_NET *14 0.000706343
*CONN
*P b1[3] O
*I *171:X O *D sky130_fd_sc_hd__buf_2
*CAP
1 b1[3] 0.000278634
2 *171:X 0.000278634
3 b1[3] b1[4] 4.22232e-05
4 b1[3] b1[5] 0
5 b1[3] *171:A 7.12809e-05
6 b1[1] b1[3] 0
7 b1[2] b1[3] 3.55714e-05
*RES
1 *171:X b1[3] 6.18003 
*END

*D_NET *15 0.000719802
*CONN
*P b1[4] O
*I *172:X O *D sky130_fd_sc_hd__buf_2
*CAP
1 b1[4] 0.000321004
2 *172:X 0.000321004
3 b1[4] b1[5] 3.55714e-05
4 b1[4] *171:A 0
5 b1[3] b1[4] 4.22232e-05
*RES
1 *172:X b1[4] 7.6893 
*END

*D_NET *16 0.000630893
*CONN
*P b1[5] O
*I *173:X O *D sky130_fd_sc_hd__buf_2
*CAP
1 b1[5] 0.000223638
2 *173:X 0.000223638
3 b1[5] b1[6] 9.02005e-05
4 b1[5] *171:A 5.78448e-05
5 b1[3] b1[5] 0
6 b1[4] b1[5] 3.55714e-05
*RES
1 *173:X b1[5] 5.92503 
*END

*D_NET *17 0.000719626
*CONN
*P b1[6] O
*I *174:X O *D sky130_fd_sc_hd__buf_2
*CAP
1 b1[6] 0.000295231
2 *174:X 0.000295231
3 b1[6] b1[7] 3.8964e-05
4 b1[6] *171:A 0
5 b1[5] b1[6] 9.02005e-05
6 *161:A b1[6] 0
*RES
1 *174:X b1[6] 6.89023 
*END

*D_NET *18 0.00073273
*CONN
*P b1[7] O
*I *175:X O *D sky130_fd_sc_hd__buf_2
*CAP
1 b1[7] 0.000330416
2 *175:X 0.000330416
3 b1[7] *145:B1 0
4 b1[6] b1[7] 3.8964e-05
5 *161:A b1[7] 3.29345e-05
*RES
1 *175:X b1[7] 7.6893 
*END

*D_NET *19 0.00119614
*CONN
*I *159:A I *D sky130_fd_sc_hd__nor2_1
*I *144:B I *D sky130_fd_sc_hd__xnor2_1
*I *143:Y O *D sky130_fd_sc_hd__nor2_1
*CAP
1 *159:A 0.000102432
2 *144:B 0
3 *143:Y 0.000210528
4 *19:12 0.00031296
5 *159:A *144:A 0
6 *159:A *146:B 0.000178526
7 *159:A *146:C 0.000133584
8 *159:A *169:A 2.16833e-05
9 *159:A *38:23 2.75229e-05
10 *19:12 *143:A 0
11 *19:12 *143:B 9.28507e-05
12 *19:12 *157:A 0
13 *19:12 *29:16 9.86611e-05
14 *19:12 *40:25 1.73877e-05
*RES
1 *143:Y *19:12 9.74 
2 *19:12 *144:B 1.6 
3 *19:12 *159:A 4.48 
*END

*D_NET *20 0.00133334
*CONN
*I *147:A_N I *D sky130_fd_sc_hd__and2b_1
*I *145:X O *D sky130_fd_sc_hd__o31a_1
*CAP
1 *147:A_N 0.00036732
2 *145:X 0.00036732
3 *147:A_N *145:A1 0
4 *147:A_N *145:A2 0.000269299
5 *147:A_N *146:A 2.937e-05
6 *147:A_N *169:A 0.000271334
7 *147:A_N *37:34 2.86975e-05
*RES
1 *145:X *147:A_N 13.68 
*END

*D_NET *21 0.00816721
*CONN
*I *154:A3 I *D sky130_fd_sc_hd__o31ai_1
*I *149:B I *D sky130_fd_sc_hd__nor2_1
*I *147:B I *D sky130_fd_sc_hd__and2b_1
*I *150:B I *D sky130_fd_sc_hd__and2_1
*I *153:D I *D sky130_fd_sc_hd__or4_1
*I *146:X O *D sky130_fd_sc_hd__or4_2
*CAP
1 *154:A3 0.000228778
2 *149:B 9.75528e-05
3 *147:B 0
4 *150:B 0.000695601
5 *153:D 0.000269609
6 *146:X 0
7 *21:53 0.000680026
8 *21:25 0.00103102
9 *21:23 0.000903602
10 *21:6 0.000484096
11 *149:B *173:A 0.000199833
12 *149:B *23:6 0.000209233
13 *150:B *145:B1 0.000252275
14 *150:B *148:A 0
15 *150:B *157:A 0
16 *150:B *171:A 0.000102184
17 *150:B *37:8 0.000226913
18 *150:B *40:10 0.000118527
19 *150:B *40:17 8.65961e-05
20 *153:D *146:A 4.58406e-05
21 *153:D *153:A 4.99619e-05
22 *153:D *154:B1 0.000320988
23 *153:D *25:14 4.82919e-05
24 *153:D *41:10 0
25 *154:A3 *152:B 5.23362e-05
26 *154:A3 *154:A2 0.000167674
27 *154:A3 *176:A 0
28 *21:23 *146:A 0.000276994
29 *21:23 *154:B1 5.20968e-05
30 *21:25 *146:A 0.000521474
31 *21:25 *159:B 8.23457e-05
32 *21:25 *37:8 4.66108e-05
33 *21:25 *37:34 0.000149438
34 *21:53 *152:B 0.000767309
35 *21:53 *173:A 0
36 *162:A *150:B 0
37 *163:A *150:B 0
38 *164:A *150:B 0
39 *165:A *150:B 0
*RES
1 *146:X *21:6 3.6 
2 *21:6 *153:D 10.53 
3 *21:6 *21:23 5.99 
4 *21:23 *21:25 6.66 
5 *21:25 *150:B 18.26 
6 *21:25 *147:B 1.6 
7 *21:23 *21:53 10.775 
8 *21:53 *149:B 6.81 
9 *21:53 *154:A3 7.815 
*END

*D_NET *22 0.00119418
*CONN
*I *148:A I *D sky130_fd_sc_hd__clkbuf_1
*I *147:X O *D sky130_fd_sc_hd__and2b_1
*CAP
1 *148:A 0.00035908
2 *147:X 0.00035908
3 *148:A *145:A3 0
4 *148:A *157:A 0.000476022
5 *148:A *171:A 0
6 *150:B *148:A 0
*RES
1 *147:X *148:A 14.4 
*END

*D_NET *23 0.00416601
*CONN
*I *151:A I *D sky130_fd_sc_hd__nor2_1
*I *152:B I *D sky130_fd_sc_hd__xnor2_1
*I *149:Y O *D sky130_fd_sc_hd__nor2_1
*CAP
1 *151:A 0.000431111
2 *152:B 0.000247434
3 *149:Y 0.000300143
4 *23:6 0.000978688
5 *151:A *151:B 6.28843e-05
6 *151:A *156:A 0.000157968
7 *152:B *154:A2 0.000944176
8 *152:B *173:A 0
9 *23:6 *173:A 1.47256e-05
10 *149:B *23:6 0.000209233
11 *154:A3 *152:B 5.23362e-05
12 *21:53 *152:B 0.000767309
*RES
1 *149:Y *23:6 5.5 
2 *23:6 *152:B 16.415 
3 *23:6 *151:A 11.225 
*END

*D_NET *24 0.0056216
*CONN
*I *151:B I *D sky130_fd_sc_hd__nor2_1
*I *150:X O *D sky130_fd_sc_hd__and2_1
*CAP
1 *151:B 0.00134164
2 *150:X 0.00134164
3 *151:B *153:A 0.000549734
4 *151:B *154:B1 0.00161466
5 *151:B *174:A 0.000141606
6 *151:B *40:17 0.000538507
7 *151:B *42:10 3.09233e-05
8 *151:A *151:B 6.28843e-05
*RES
1 *150:X *151:B 38.1 
*END

*D_NET *25 0.0047619
*CONN
*I *155:A I *D sky130_fd_sc_hd__and2_1
*I *157:B I *D sky130_fd_sc_hd__xor2_1
*I *153:X O *D sky130_fd_sc_hd__or4_1
*CAP
1 *155:A 0
2 *157:B 0.000294989
3 *153:X 0.0010558
4 *25:14 0.00135079
5 *157:B *172:A 0.000378833
6 *25:14 *146:A 6.95505e-05
7 *25:14 *153:A 0.000176503
8 *25:14 *154:A2 0.00110549
9 *25:14 *154:B1 0
10 *25:14 *155:B 3.09164e-05
11 *25:14 *156:A 4.61658e-05
12 *25:14 *172:A 1.91597e-05
13 *25:14 *41:10 0.000185405
14 *153:D *25:14 4.82919e-05
*RES
1 *153:X *25:14 27.905 
2 *25:14 *157:B 7.57 
3 *25:14 *155:A 1.6 
*END

*D_NET *26 0.000330888
*CONN
*I *155:B I *D sky130_fd_sc_hd__and2_1
*I *154:Y O *D sky130_fd_sc_hd__o31ai_1
*CAP
1 *155:B 0.000118551
2 *154:Y 0.000118551
3 *155:B *154:A2 5.92191e-05
4 *155:B *154:B1 3.64998e-06
5 *25:14 *155:B 3.09164e-05
*RES
1 *154:Y *155:B 9.285 
*END

*D_NET *27 0.000640178
*CONN
*I *156:A I *D sky130_fd_sc_hd__clkbuf_1
*I *155:X O *D sky130_fd_sc_hd__and2_1
*CAP
1 *156:A 0.000218022
2 *155:X 0.000218022
3 *156:A *154:B1 0
4 *151:A *156:A 0.000157968
5 *25:14 *156:A 4.61658e-05
*RES
1 *155:X *156:A 11.445 
*END

*D_NET *28 0.000517463
*CONN
*I *159:B I *D sky130_fd_sc_hd__nor2_1
*I *158:X O *D sky130_fd_sc_hd__and2_1
*CAP
1 *159:B 0.000150304
2 *158:X 0.000150304
3 *159:B *152:A 0
4 *159:B *154:A2 0
5 *159:B *176:A 0.000134509
6 *21:25 *159:B 8.23457e-05
*RES
1 *158:X *159:B 9.63 
*END

*D_NET *29 0.00601222
*CONN
*I *145:A2 I *D sky130_fd_sc_hd__o31a_1
*I *158:B I *D sky130_fd_sc_hd__and2_1
*I *146:B I *D sky130_fd_sc_hd__or4_2
*I *160:A I *D sky130_fd_sc_hd__clkbuf_1
*I *143:B I *D sky130_fd_sc_hd__nor2_1
*I *161:X O *D sky130_fd_sc_hd__buf_1
*CAP
1 *145:A2 0.000266768
2 *158:B 2.61242e-05
3 *146:B 0.000351394
4 *160:A 0.000336971
5 *143:B 0.00012102
6 *161:X 0.000596406
7 *29:16 0.000545045
8 *29:12 0.000492987
9 *29:10 0.000112572
10 *29:8 0.000895083
11 *145:A2 *145:A1 9.0009e-05
12 *145:A2 *169:A 0.000200648
13 *145:A2 *40:25 0.000209179
14 *146:B *146:C 0.000115031
15 *146:B *169:A 0.000118081
16 *158:B *146:A 4.66108e-05
17 *160:A *176:A 0.000130547
18 *160:A *40:25 0
19 *160:A *41:10 0
20 *29:10 *169:A 0.000108322
21 *29:10 *40:25 0.000116853
22 *29:12 *143:A 0
23 *29:12 *169:A 0.00013521
24 *29:12 *40:25 0.000155928
25 *29:16 *143:A 0
26 *29:16 *40:25 0.000202095
27 *147:A_N *145:A2 0.000269299
28 *159:A *146:B 0.000178526
29 *19:12 *143:B 9.28507e-05
30 *19:12 *29:16 9.86611e-05
*RES
1 *161:X *29:8 9.57 
2 *29:8 *29:10 1.38 
3 *29:10 *29:12 1.89 
4 *29:12 *29:16 4.4 
5 *29:16 *143:B 3.775 
6 *29:16 *160:A 11.615 
7 *29:12 *146:B 9 
8 *29:10 *158:B 4.05 
9 *29:8 *145:A2 10.245 
*END

*D_NET *30 0.00380979
*CONN
*I *169:A I *D sky130_fd_sc_hd__buf_2
*I *159:Y O *D sky130_fd_sc_hd__nor2_1
*CAP
1 *169:A 0.000973337
2 *159:Y 0.000973337
3 *169:A *143:A 0
4 *169:A *145:A1 0
5 *169:A *154:A1 0.000355136
6 *169:A *157:A 0
7 *169:A *176:A 0.000327961
8 *169:A *40:25 0.000297812
9 b1[0] *169:A 2.69272e-05
10 *145:A2 *169:A 0.000200648
11 *146:B *169:A 0.000118081
12 *147:A_N *169:A 0.000271334
13 *159:A *169:A 2.16833e-05
14 *29:10 *169:A 0.000108322
15 *29:12 *169:A 0.00013521
*RES
1 *159:Y *169:A 28.35 
*END

*D_NET *31 0.00329294
*CONN
*I *170:A I *D sky130_fd_sc_hd__buf_2
*I *144:Y O *D sky130_fd_sc_hd__xnor2_1
*CAP
1 *170:A 0.000990055
2 *144:Y 0.000990055
3 *170:A *145:A3 0.000471287
4 *170:A *171:A 0.000120086
5 *170:A *175:A 0.00053888
6 *170:A *38:23 0.000132038
7 b1[1] *170:A 5.05437e-05
*RES
1 *144:Y *170:A 27.12 
*END

*D_NET *32 0.00339203
*CONN
*I *171:A I *D sky130_fd_sc_hd__buf_2
*I *148:X O *D sky130_fd_sc_hd__clkbuf_1
*CAP
1 *171:A 0.000636852
2 *148:X 0.000636852
3 *171:A *145:A3 0.000540533
4 *171:A *145:B1 0.000647188
5 *171:A *146:D 3.86607e-05
6 *171:A *175:A 0.000540547
7 b1[3] *171:A 7.12809e-05
8 b1[4] *171:A 0
9 b1[5] *171:A 5.78448e-05
10 b1[6] *171:A 0
11 *148:A *171:A 0
12 *150:B *171:A 0.000102184
13 *170:A *171:A 0.000120086
*RES
1 *148:X *171:A 25.605 
*END

*D_NET *33 0.00242989
*CONN
*I *172:A I *D sky130_fd_sc_hd__buf_2
*I *151:Y O *D sky130_fd_sc_hd__nor2_1
*CAP
1 *172:A 0.000887143
2 *151:Y 0.000887143
3 *172:A *157:A 0.000123592
4 *172:A *175:A 0.000134018
5 *157:B *172:A 0.000378833
6 *25:14 *172:A 1.91597e-05
*RES
1 *151:Y *172:A 17.12 
*END

*D_NET *34 0.00253279
*CONN
*I *173:A I *D sky130_fd_sc_hd__buf_2
*I *152:Y O *D sky130_fd_sc_hd__xnor2_1
*CAP
1 *173:A 0.00115912
2 *152:Y 0.00115912
3 *173:A *176:A 0
4 *149:B *173:A 0.000199833
5 *152:B *173:A 0
6 *21:53 *173:A 0
7 *23:6 *173:A 1.47256e-05
*RES
1 *152:Y *173:A 25.395 
*END

*D_NET *35 0.00227049
*CONN
*I *174:A I *D sky130_fd_sc_hd__buf_2
*I *156:X O *D sky130_fd_sc_hd__clkbuf_1
*CAP
1 *174:A 0.00106444
2 *156:X 0.00106444
3 *151:B *174:A 0.000141606
*RES
1 *156:X *174:A 22.395 
*END

*D_NET *36 0.00178576
*CONN
*I *175:A I *D sky130_fd_sc_hd__buf_2
*I *157:X O *D sky130_fd_sc_hd__xor2_1
*CAP
1 *175:A 0.00026201
2 *157:X 0.00026201
3 *175:A *145:B1 4.82919e-05
4 *170:A *175:A 0.00053888
5 *171:A *175:A 0.000540547
6 *172:A *175:A 0.000134018
*RES
1 *157:X *175:A 16.05 
*END

*D_NET *37 0.00447812
*CONN
*I *146:A I *D sky130_fd_sc_hd__or4_2
*I *158:A I *D sky130_fd_sc_hd__and2_1
*I *145:A1 I *D sky130_fd_sc_hd__o31a_1
*I *143:A I *D sky130_fd_sc_hd__nor2_1
*I *162:X O *D sky130_fd_sc_hd__buf_1
*CAP
1 *146:A 0.000382419
2 *158:A 0
3 *145:A1 0.000266825
4 *143:A 0.000212414
5 *162:X 0.000206739
6 *37:34 0.000433834
7 *37:10 0.000479239
8 *37:8 0.000258155
9 *143:A *157:A 0.000333503
10 *145:A1 *157:A 0.000373486
11 *145:A2 *145:A1 9.0009e-05
12 *147:A_N *145:A1 0
13 *147:A_N *146:A 2.937e-05
14 *147:A_N *37:34 2.86975e-05
15 *150:B *37:8 0.000226913
16 *153:D *146:A 4.58406e-05
17 *158:B *146:A 4.66108e-05
18 *169:A *143:A 0
19 *169:A *145:A1 0
20 *19:12 *143:A 0
21 *21:23 *146:A 0.000276994
22 *21:25 *146:A 0.000521474
23 *21:25 *37:8 4.66108e-05
24 *21:25 *37:34 0.000149438
25 *25:14 *146:A 6.95505e-05
26 *29:12 *143:A 0
27 *29:16 *143:A 0
*RES
1 *162:X *37:8 5.515 
2 *37:8 *37:10 2 
3 *37:10 *143:A 7.98 
4 *37:10 *145:A1 9.525 
5 *37:8 *37:34 1.485 
6 *37:34 *158:A 1.6 
7 *37:34 *146:A 14.75 
*END

*D_NET *38 0.0038519
*CONN
*I *146:C I *D sky130_fd_sc_hd__or4_2
*I *144:A I *D sky130_fd_sc_hd__xnor2_1
*I *145:A3 I *D sky130_fd_sc_hd__o31a_1
*I *163:X O *D sky130_fd_sc_hd__buf_1
*CAP
1 *146:C 0.000205118
2 *144:A 2.08101e-05
3 *145:A3 0.000200928
4 *163:X 8.9913e-05
5 *38:23 0.000388342
6 *38:8 0.000453255
7 *145:A3 *145:B1 4.66108e-05
8 *146:C *146:D 0.000536638
9 *38:23 *146:D 0.000490292
10 *146:B *146:C 0.000115031
11 *148:A *145:A3 0
12 *159:A *144:A 0
13 *159:A *146:C 0.000133584
14 *159:A *38:23 2.75229e-05
15 *170:A *145:A3 0.000471287
16 *170:A *38:23 0.000132038
17 *171:A *145:A3 0.000540533
*RES
1 *163:X *38:8 2.755 
2 *38:8 *145:A3 12.62 
3 *38:8 *38:23 4.935 
4 *38:23 *144:A 1.96 
5 *38:23 *146:C 8.035 
*END

*D_NET *39 0.00462249
*CONN
*I *146:D I *D sky130_fd_sc_hd__or4_2
*I *145:B1 I *D sky130_fd_sc_hd__o31a_1
*I *164:X O *D sky130_fd_sc_hd__clkbuf_1
*CAP
1 *146:D 0.000899269
2 *145:B1 0.00033989
3 *164:X 0
4 *39:4 0.00123916
5 b1[7] *145:B1 0
6 *145:A3 *145:B1 4.66108e-05
7 *146:C *146:D 0.000536638
8 *150:B *145:B1 0.000252275
9 *161:A *145:B1 8.42096e-05
10 *162:A *145:B1 0
11 *171:A *145:B1 0.000647188
12 *171:A *146:D 3.86607e-05
13 *175:A *145:B1 4.82919e-05
14 *38:23 *146:D 0.000490292
*RES
1 *164:X *39:4 1.6 
2 *39:4 *145:B1 14.6 
3 *39:4 *146:D 17.735 
*END

*D_NET *40 0.00738228
*CONN
*I *153:A I *D sky130_fd_sc_hd__or4_1
*I *154:A1 I *D sky130_fd_sc_hd__o31ai_1
*I *149:A I *D sky130_fd_sc_hd__nor2_1
*I *150:A I *D sky130_fd_sc_hd__and2_1
*I *165:X O *D sky130_fd_sc_hd__buf_1
*CAP
1 *153:A 0.000287493
2 *154:A1 0.000343849
3 *149:A 0
4 *150:A 0
5 *165:X 7.79817e-05
6 *40:25 0.000846767
7 *40:17 0.00106623
8 *40:10 0.000353803
9 *153:A *176:A 2.11084e-05
10 *154:A1 *176:A 0.000202727
11 *40:10 *157:A 0
12 *40:25 *157:A 0
13 *40:25 *176:A 0.0013081
14 *40:25 *41:10 0
15 *145:A2 *40:25 0.000209179
16 *150:B *40:10 0.000118527
17 *150:B *40:17 8.65961e-05
18 *151:B *153:A 0.000549734
19 *151:B *40:17 0.000538507
20 *153:D *153:A 4.99619e-05
21 *160:A *40:25 0
22 *169:A *154:A1 0.000355136
23 *169:A *40:25 0.000297812
24 *19:12 *40:25 1.73877e-05
25 *25:14 *153:A 0.000176503
26 *29:10 *40:25 0.000116853
27 *29:12 *40:25 0.000155928
28 *29:16 *40:25 0.000202095
*RES
1 *165:X *40:10 7.235 
2 *40:10 *150:A 1.6 
3 *40:10 *40:17 6.315 
4 *40:17 *40:25 19.235 
5 *40:25 *149:A 3.6 
6 *40:25 *154:A1 11.34 
7 *40:17 *153:A 9.76 
*END

*D_NET *41 0.00695894
*CONN
*I *153:B I *D sky130_fd_sc_hd__or4_1
*I *154:A2 I *D sky130_fd_sc_hd__o31ai_1
*I *152:A I *D sky130_fd_sc_hd__xnor2_1
*I *166:X O *D sky130_fd_sc_hd__buf_1
*CAP
1 *153:B 0.000300684
2 *154:A2 0.0004468
3 *152:A 5.66846e-06
4 *166:X 0.000745552
5 *41:10 0.000897309
6 *41:6 0.00149108
7 *152:A *176:A 0
8 *153:B *42:10 0.000213483
9 *154:A2 *154:B1 0
10 *41:6 *42:10 0.000299455
11 *41:10 *154:B1 0
12 *41:10 *176:A 0
13 *41:10 *42:10 0
14 *152:B *154:A2 0.000944176
15 *153:D *41:10 0
16 *154:A3 *154:A2 0.000167674
17 *155:B *154:A2 5.92191e-05
18 *159:B *152:A 0
19 *159:B *154:A2 0
20 *160:A *41:10 0
21 *167:A *41:6 4.99619e-05
22 *168:A *41:6 4.69833e-05
23 *25:14 *154:A2 0.00110549
24 *25:14 *41:10 0.000185405
25 *40:25 *41:10 0
*RES
1 *166:X *41:6 11.365 
2 *41:6 *41:10 10.6475 
3 *41:10 *152:A 3.8325 
4 *41:10 *154:A2 19.53 
5 *41:6 *153:B 10.955 
*END

*D_NET *42 0.00599052
*CONN
*I *154:B1 I *D sky130_fd_sc_hd__o31ai_1
*I *153:C I *D sky130_fd_sc_hd__or4_1
*I *167:X O *D sky130_fd_sc_hd__buf_1
*CAP
1 *154:B1 0.000902464
2 *153:C 0
3 *167:X 0.000738465
4 *42:10 0.00164093
5 *42:10 *157:A 0.000124473
6 *151:B *154:B1 0.00161466
7 *151:B *42:10 3.09233e-05
8 *153:B *42:10 0.000213483
9 *153:D *154:B1 0.000320988
10 *154:A2 *154:B1 0
11 *155:B *154:B1 3.64998e-06
12 *156:A *154:B1 0
13 *168:A *42:10 4.89295e-05
14 *21:23 *154:B1 5.20968e-05
15 *25:14 *154:B1 0
16 *41:6 *42:10 0.000299455
17 *41:10 *154:B1 0
18 *41:10 *42:10 0
*RES
1 *167:X *42:10 17.415 
2 *42:10 *153:C 3.6 
3 *42:10 *154:B1 26.535 
*END

*D_NET *43 0.00365296
*CONN
*I *157:A I *D sky130_fd_sc_hd__xor2_1
*I *168:X O *D sky130_fd_sc_hd__buf_1
*CAP
1 *157:A 0.00111094
2 *168:X 0.00111094
3 *143:A *157:A 0.000333503
4 *145:A1 *157:A 0.000373486
5 *148:A *157:A 0.000476022
6 *150:B *157:A 0
7 *169:A *157:A 0
8 *172:A *157:A 0.000123592
9 *19:12 *157:A 0
10 *40:10 *157:A 0
11 *40:25 *157:A 0
12 *42:10 *157:A 0.000124473
*RES
1 *168:X *157:A 29.22 
*END

*D_NET *44 0.0042673
*CONN
*I *176:A I *D sky130_fd_sc_hd__buf_2
*I *160:X O *D sky130_fd_sc_hd__clkbuf_1
*CAP
1 *176:A 0.00107117
2 *160:X 0.00107117
3 *152:A *176:A 0
4 *153:A *176:A 2.11084e-05
5 *154:A1 *176:A 0.000202727
6 *154:A3 *176:A 0
7 *159:B *176:A 0.000134509
8 *160:A *176:A 0.000130547
9 *169:A *176:A 0.000327961
10 *173:A *176:A 0
11 *40:25 *176:A 0.0013081
12 *41:10 *176:A 0
*RES
1 *160:X *176:A 32.985 
*END
